128 
#   xyz format:  [atom type]  x y z (Angstrom) 
H21  0.000000e+00     7.078363e+00     0.000000e+00     7.808969e-01     0.000000e+00     0.000000e+00   
H21  0.000000e+00     6.615518e+00     0.000000e+00     8.396092e-01     0.000000e+00     0.000000e+00   
H21  0.000000e+00     6.139747e+00     0.000000e+00     8.155099e-01     0.000000e+00     0.000000e+00   
H21  0.000000e+00     6.304934e+00     0.000000e+00     7.686110e-01     0.000000e+00     0.000000e+00   
H21  0.000000e+00     6.145356e+00     0.000000e+00     8.696226e-01     0.000000e+00     0.000000e+00   
H21  0.000000e+00     2.347527e-01     0.000000e+00     8.179421e-01     0.000000e+00     0.000000e+00   
H21  0.000000e+00     6.456062e+00     0.000000e+00     8.856892e-01     0.000000e+00     0.000000e+00   
H21  0.000000e+00     5.704000e+00     0.000000e+00     7.971827e-01     0.000000e+00     0.000000e+00   
H21  0.000000e+00     1.174695e+01     0.000000e+00     7.067319e-01     0.000000e+00     0.000000e+00   
H21  0.000000e+00     1.806467e+01     0.000000e+00     8.930883e-01     0.000000e+00     0.000000e+00   
H21  0.000000e+00     1.137924e+01     0.000000e+00     9.246308e-01     0.000000e+00     0.000000e+00   
H21  0.000000e+00     4.778141e+00     0.000000e+00     9.144628e-01     0.000000e+00     0.000000e+00   
H21  0.000000e+00     5.222593e+00     0.000000e+00     8.413227e-01     0.000000e+00     0.000000e+00   
H21  0.000000e+00    -7.895303e-01     0.000000e+00     8.782593e-01     0.000000e+00     0.000000e+00   
H21  0.000000e+00    -8.472518e-01     0.000000e+00     8.214676e-01     0.000000e+00     0.000000e+00   
H21  0.000000e+00    -1.090494e+00     0.000000e+00     5.614441e-01     0.000000e+00     0.000000e+00   
H21  0.000000e+00    -1.459805e+00     0.000000e+00     6.308120e-01     0.000000e+00     0.000000e+00   
H21  0.000000e+00    -1.615133e+00     0.000000e+00     7.086837e-01     0.000000e+00     0.000000e+00   
H21  0.000000e+00    -1.647233e+00     0.000000e+00     6.768421e-01     0.000000e+00     0.000000e+00   
H21  0.000000e+00    -1.474801e+00     0.000000e+00     4.048204e-01     0.000000e+00     0.000000e+00   
H21  0.000000e+00    -1.707421e+00     0.000000e+00     2.609858e-01     0.000000e+00     0.000000e+00   
H21  0.000000e+00    -1.475568e+00     0.000000e+00     4.244686e-01     0.000000e+00     0.000000e+00   
H21  0.000000e+00    -7.848569e+00     0.000000e+00     2.820615e-01     0.000000e+00     0.000000e+00   
H21  0.000000e+00    -7.802620e+00     0.000000e+00     4.836077e-02     0.000000e+00     0.000000e+00   
H21  0.000000e+00    -8.102979e+00     0.000000e+00    -2.866934e-02     0.000000e+00     0.000000e+00   
H21  0.000000e+00    -7.963220e+00     0.000000e+00    -4.536862e-01     0.000000e+00     0.000000e+00   
H21  0.000000e+00    -7.819820e+00     0.000000e+00    -7.150686e-01     0.000000e+00     0.000000e+00   
H21  0.000000e+00    -8.170307e+00     0.000000e+00    -6.708163e-01     0.000000e+00     0.000000e+00   
H21  0.000000e+00    -7.979277e+00     0.000000e+00    -4.817886e-01     0.000000e+00     0.000000e+00   
H21  0.000000e+00    -1.752506e+00     0.000000e+00    -1.589205e-01     0.000000e+00     0.000000e+00   
H21  0.000000e+00    -1.501542e+00     0.000000e+00    -4.085618e-02     0.000000e+00     0.000000e+00   
H21  0.000000e+00    -1.381123e+00     0.000000e+00     1.058286e-01     0.000000e+00     0.000000e+00   
H21  0.000000e+00    -1.593339e+00     0.000000e+00     1.743314e-01     0.000000e+00     0.000000e+00   
H21  0.000000e+00    -1.792884e+00     0.000000e+00     2.997429e-01     0.000000e+00     0.000000e+00   
H21  0.000000e+00    -2.011855e+00     0.000000e+00     2.260219e-01     0.000000e+00     0.000000e+00   
H21  0.000000e+00    -2.118991e+00     0.000000e+00     7.208359e-02     0.000000e+00     0.000000e+00   
H21  0.000000e+00    -2.021376e+00     0.000000e+00     4.758426e-01     0.000000e+00     0.000000e+00   
H21  0.000000e+00    -2.203419e+00     0.000000e+00     5.726008e-01     0.000000e+00     0.000000e+00   
H21  0.000000e+00    -2.288509e+00     0.000000e+00     5.609434e-01     0.000000e+00     0.000000e+00   
H21  0.000000e+00    -8.657947e+00     0.000000e+00     6.804012e-01     0.000000e+00     0.000000e+00   
H21  0.000000e+00    -2.454675e+00     0.000000e+00     9.187862e-01     0.000000e+00     0.000000e+00   
H21  0.000000e+00    -2.742197e+00     0.000000e+00     9.313841e-01     0.000000e+00     0.000000e+00   
H21  0.000000e+00    -2.567892e+00     0.000000e+00     7.321154e-01     0.000000e+00     0.000000e+00   
H21  0.000000e+00    -2.245720e+00     0.000000e+00     8.819784e-01     0.000000e+00     0.000000e+00   
H21  0.000000e+00    -1.837652e+00     0.000000e+00     7.749042e-01     0.000000e+00     0.000000e+00   
H21  0.000000e+00    -1.849138e+00     0.000000e+00     8.004289e-01     0.000000e+00     0.000000e+00   
H21  0.000000e+00    -1.842758e+00     0.000000e+00     7.754517e-01     0.000000e+00     0.000000e+00   
H21  0.000000e+00    -1.951037e+00     0.000000e+00     7.953040e-01     0.000000e+00     0.000000e+00   
H21  0.000000e+00    -1.707665e+00     0.000000e+00     6.085082e-01     0.000000e+00     0.000000e+00   
H21  0.000000e+00    -1.783229e+00     0.000000e+00     4.664546e-01     0.000000e+00     0.000000e+00   
H21  0.000000e+00     4.093160e+00     0.000000e+00     3.050889e-01     0.000000e+00     0.000000e+00   
H21  0.000000e+00    -2.159620e+00     0.000000e+00    -4.495338e-02     0.000000e+00     0.000000e+00   
H21  0.000000e+00     3.803843e+00     0.000000e+00     2.892864e-01     0.000000e+00     0.000000e+00   
H21  0.000000e+00    -2.305365e+00     0.000000e+00     3.919154e-01     0.000000e+00     0.000000e+00   
H21  0.000000e+00    -2.189638e+00     0.000000e+00     3.496922e-01     0.000000e+00     0.000000e+00   
H21  0.000000e+00    -2.309884e+00     0.000000e+00    -2.154998e-02     0.000000e+00     0.000000e+00   
H21  0.000000e+00    -2.589137e+00     0.000000e+00    -3.164691e-03     0.000000e+00     0.000000e+00   
H21  0.000000e+00    -2.486548e+00     0.000000e+00     6.370954e-02     0.000000e+00     0.000000e+00   
H21  0.000000e+00    -8.989440e+00     0.000000e+00    -1.672373e-01     0.000000e+00     0.000000e+00   
H21  0.000000e+00    -2.381287e+00     0.000000e+00    -1.277134e-01     0.000000e+00     0.000000e+00   
H21  0.000000e+00    -2.457358e+00     0.000000e+00    -2.884002e-01     0.000000e+00     0.000000e+00   
H21  0.000000e+00    -2.869983e+00     0.000000e+00    -4.563639e-01     0.000000e+00     0.000000e+00   
H21  0.000000e+00    -2.871318e+00     0.000000e+00    -5.082204e-01     0.000000e+00     0.000000e+00   
H21  0.000000e+00    -2.962560e+00     0.000000e+00    -5.670329e-01     0.000000e+00     0.000000e+00   
H21  0.000000e+00    -3.170609e+00     0.000000e+00    -7.675296e-01     0.000000e+00     0.000000e+00   
H21  0.000000e+00    -2.566130e+00     0.000000e+00    -6.281259e-01     0.000000e+00     0.000000e+00   
H21  0.000000e+00    -2.392348e+00     0.000000e+00    -5.320024e-01     0.000000e+00     0.000000e+00   
H21  0.000000e+00    -2.223486e+00     0.000000e+00    -3.188039e-01     0.000000e+00     0.000000e+00   
H21  0.000000e+00    -2.497878e+00     0.000000e+00    -4.628374e-01     0.000000e+00     0.000000e+00   
H21  0.000000e+00    -8.827758e+00     0.000000e+00    -4.857610e-01     0.000000e+00     0.000000e+00   
H21  0.000000e+00     3.812141e+00     0.000000e+00    -4.834648e-01     0.000000e+00     0.000000e+00   
H21  0.000000e+00     3.992437e+00     0.000000e+00    -9.055728e-04     0.000000e+00     0.000000e+00   
H21  0.000000e+00     3.964982e+00     0.000000e+00    -1.690139e-01     0.000000e+00     0.000000e+00   
H21  0.000000e+00     4.142824e+00     0.000000e+00     9.674946e-02     0.000000e+00     0.000000e+00   
H21  0.000000e+00     4.021163e+00     0.000000e+00    -1.368088e-01     0.000000e+00     0.000000e+00   
H21  0.000000e+00    -2.424202e+00     0.000000e+00    -1.324342e-01     0.000000e+00     0.000000e+00   
H21  0.000000e+00     4.080331e+00     0.000000e+00     1.608781e-02     0.000000e+00     0.000000e+00   
H21  0.000000e+00     4.346268e+00     0.000000e+00    -3.197876e-01     0.000000e+00     0.000000e+00   
H21  0.000000e+00     4.288511e+00     0.000000e+00    -3.604656e-01     0.000000e+00     0.000000e+00   
H21  0.000000e+00     4.799847e+00     0.000000e+00    -1.832271e-01     0.000000e+00     0.000000e+00   
H21  0.000000e+00     4.867050e+00     0.000000e+00    -1.688021e-01     0.000000e+00     0.000000e+00   
H21  0.000000e+00    -1.330684e+00     0.000000e+00    -4.063962e-02     0.000000e+00     0.000000e+00   
H21  0.000000e+00     5.055709e+00     0.000000e+00    -1.257063e-01     0.000000e+00     0.000000e+00   
H21  0.000000e+00     5.020594e+00     0.000000e+00    -1.500981e-01     0.000000e+00     0.000000e+00   
H21  0.000000e+00     4.752156e+00     0.000000e+00     1.160565e-01     0.000000e+00     0.000000e+00   
H21  0.000000e+00     4.531213e+00     0.000000e+00    -3.765336e-01     0.000000e+00     0.000000e+00   
H21  0.000000e+00     4.521913e+00     0.000000e+00    -5.402908e-01     0.000000e+00     0.000000e+00   
H21  0.000000e+00     4.345798e+00     0.000000e+00    -3.682453e-01     0.000000e+00     0.000000e+00   
H21  0.000000e+00     4.316175e+00     0.000000e+00    -4.407227e-01     0.000000e+00     0.000000e+00   
H21  0.000000e+00     4.518507e+00     0.000000e+00    -2.836086e-01     0.000000e+00     0.000000e+00   
H21  0.000000e+00     4.679669e+00     0.000000e+00    -3.293549e-01     0.000000e+00     0.000000e+00   
H21  0.000000e+00     4.634023e+00     0.000000e+00    -8.829137e-02     0.000000e+00     0.000000e+00   
H21  0.000000e+00     4.358549e+00     0.000000e+00     1.175669e-01     0.000000e+00     0.000000e+00   
H21  0.000000e+00     4.307218e+00     0.000000e+00     1.643309e-01     0.000000e+00     0.000000e+00   
H21  0.000000e+00     3.961866e+00     0.000000e+00     6.853647e-02     0.000000e+00     0.000000e+00   
H21  0.000000e+00     3.690694e+00     0.000000e+00    -4.329920e-02     0.000000e+00     0.000000e+00   
H21  0.000000e+00     3.645409e+00     0.000000e+00     3.348598e-02     0.000000e+00     0.000000e+00   
H21  0.000000e+00     3.471139e+00     0.000000e+00    -8.946661e-02     0.000000e+00     0.000000e+00   
H21  0.000000e+00     3.555864e+00     0.000000e+00    -3.235888e-01     0.000000e+00     0.000000e+00   
H21  0.000000e+00     3.699833e+00     0.000000e+00    -1.386057e-01     0.000000e+00     0.000000e+00   
H21  0.000000e+00     3.548856e+00     0.000000e+00    -3.935247e-02     0.000000e+00     0.000000e+00   
H21  0.000000e+00     3.184145e+00     0.000000e+00    -4.491808e-02     0.000000e+00     0.000000e+00   
H21  0.000000e+00     3.314975e+00     0.000000e+00    -2.266752e-02     0.000000e+00     0.000000e+00   
H21  0.000000e+00     9.665427e+00     0.000000e+00     1.589917e-01     0.000000e+00     0.000000e+00   
H21  0.000000e+00     9.845200e+00     0.000000e+00     5.155256e-01     0.000000e+00     0.000000e+00   
H21  0.000000e+00     9.430822e+00     0.000000e+00     3.860202e-01     0.000000e+00     0.000000e+00   
H21  0.000000e+00     9.226709e+00     0.000000e+00     3.550769e-01     0.000000e+00     0.000000e+00   
H21  0.000000e+00     8.717445e+00     0.000000e+00     4.762823e-01     0.000000e+00     0.000000e+00   
H21  0.000000e+00     8.773514e+00     0.000000e+00     4.883376e-01     0.000000e+00     0.000000e+00   
H21  0.000000e+00     8.525145e+00     0.000000e+00     3.700515e-01     0.000000e+00     0.000000e+00   
H21  0.000000e+00     8.846056e+00     0.000000e+00     3.120968e-01     0.000000e+00     0.000000e+00   
H21  0.000000e+00     8.900660e+00     0.000000e+00     4.077385e-01     0.000000e+00     0.000000e+00   
H21  0.000000e+00     8.901399e+00     0.000000e+00     2.718951e-01     0.000000e+00     0.000000e+00   
H21  0.000000e+00     9.314798e+00     0.000000e+00     4.339612e-01     0.000000e+00     0.000000e+00   
H21  0.000000e+00     8.900117e+00     0.000000e+00     8.281446e-01     0.000000e+00     0.000000e+00   
H21  0.000000e+00     8.203503e+00     0.000000e+00     7.092403e-01     0.000000e+00     0.000000e+00   
H21  0.000000e+00     8.168685e+00     0.000000e+00     5.075106e-01     0.000000e+00     0.000000e+00   
H21  0.000000e+00     8.486335e+00     0.000000e+00     2.393810e-01     0.000000e+00     0.000000e+00   
H21  0.000000e+00     8.785617e+00     0.000000e+00     2.408092e-02     0.000000e+00     0.000000e+00   
H21  0.000000e+00     8.806989e+00     0.000000e+00    -2.506992e-01     0.000000e+00     0.000000e+00   
H21  0.000000e+00     9.321575e+00     0.000000e+00    -5.781523e-01     0.000000e+00     0.000000e+00   
H21  0.000000e+00     9.229654e+00     0.000000e+00    -4.076614e-01     0.000000e+00     0.000000e+00   
H21  0.000000e+00     1.549501e+01     0.000000e+00    -2.341797e-01     0.000000e+00     0.000000e+00   
H21  0.000000e+00     1.531998e+01     0.000000e+00    -4.798191e-01     0.000000e+00     0.000000e+00   
H21  0.000000e+00     9.152365e+00     0.000000e+00    -4.525068e-01     0.000000e+00     0.000000e+00   
H21  0.000000e+00     2.941457e+00     0.000000e+00    -6.768539e-01     0.000000e+00     0.000000e+00   
H21  0.000000e+00     9.592736e+00     0.000000e+00    -6.284914e-01     0.000000e+00     0.000000e+00   
H21  0.000000e+00     9.917736e+00     0.000000e+00    -3.023065e-01     0.000000e+00     0.000000e+00   
