128 
#   xyz format:  [atom type]  x y z (Angstrom) 
H21  0.000000e+00     1.222217e+01     0.000000e+00    -8.424052e-03     0.000000e+00     0.000000e+00   
H21  0.000000e+00     6.277494e+00     0.000000e+00    -2.769808e-01     0.000000e+00     0.000000e+00   
H21  0.000000e+00     6.287523e+00     0.000000e+00    -1.792078e-01     0.000000e+00     0.000000e+00   
H21  0.000000e+00     6.170310e+00     0.000000e+00     1.748424e-01     0.000000e+00     0.000000e+00   
H21  0.000000e+00     6.105017e+00     0.000000e+00     9.855518e-02     0.000000e+00     0.000000e+00   
H21  0.000000e+00    -1.478530e-03     0.000000e+00     1.712793e-01     0.000000e+00     0.000000e+00   
H21  0.000000e+00     6.339335e+00     0.000000e+00     6.394869e-02     0.000000e+00     0.000000e+00   
H21  0.000000e+00     6.496981e+00     0.000000e+00    -6.596798e-02     0.000000e+00     0.000000e+00   
H21  0.000000e+00     1.909326e+01     0.000000e+00     1.006437e-01     0.000000e+00     0.000000e+00   
H21  0.000000e+00     1.904254e+01     0.000000e+00     4.106504e-01     0.000000e+00     0.000000e+00   
H21  0.000000e+00     1.284755e+01     0.000000e+00     7.135724e-01     0.000000e+00     0.000000e+00   
H21  0.000000e+00     6.572748e+00     0.000000e+00     8.080108e-01     0.000000e+00     0.000000e+00   
H21  0.000000e+00     6.911718e+00     0.000000e+00     5.123885e-01     0.000000e+00     0.000000e+00   
H21  0.000000e+00     3.872624e-02     0.000000e+00     7.974128e-01     0.000000e+00     0.000000e+00   
H21  0.000000e+00     2.165302e-01     0.000000e+00     6.953857e-01     0.000000e+00     0.000000e+00   
H21  0.000000e+00     6.495551e+00     0.000000e+00     6.658989e-01     0.000000e+00     0.000000e+00   
H21  0.000000e+00     6.478744e+00     0.000000e+00     5.398859e-01     0.000000e+00     0.000000e+00   
H21  0.000000e+00    -4.882092e-01     0.000000e+00     5.877527e-01     0.000000e+00     0.000000e+00   
H21  0.000000e+00    -5.598903e-01     0.000000e+00     4.679954e-01     0.000000e+00     0.000000e+00   
H21  0.000000e+00    -1.176454e+00     0.000000e+00     7.499158e-01     0.000000e+00     0.000000e+00   
H21  0.000000e+00    -8.402172e-01     0.000000e+00     6.114229e-01     0.000000e+00     0.000000e+00   
H21  0.000000e+00    -9.394450e-01     0.000000e+00     6.771504e-01     0.000000e+00     0.000000e+00   
H21  0.000000e+00    -7.200866e+00     0.000000e+00     7.809223e-01     0.000000e+00     0.000000e+00   
H21  0.000000e+00    -7.305252e+00     0.000000e+00     8.457967e-01     0.000000e+00     0.000000e+00   
H21  0.000000e+00    -7.118325e+00     0.000000e+00     7.848349e-01     0.000000e+00     0.000000e+00   
H21  0.000000e+00    -7.028371e+00     0.000000e+00     6.309411e-01     0.000000e+00     0.000000e+00   
H21  0.000000e+00    -7.469107e+00     0.000000e+00     6.585206e-01     0.000000e+00     0.000000e+00   
H21  0.000000e+00    -7.448626e+00     0.000000e+00     6.200871e-01     0.000000e+00     0.000000e+00   
H21  0.000000e+00    -7.715031e+00     0.000000e+00     7.575049e-01     0.000000e+00     0.000000e+00   
H21  0.000000e+00    -1.370560e+00     0.000000e+00     6.720920e-01     0.000000e+00     0.000000e+00   
H21  0.000000e+00    -1.662965e+00     0.000000e+00     7.831772e-01     0.000000e+00     0.000000e+00   
H21  0.000000e+00    -1.788534e+00     0.000000e+00     6.959812e-01     0.000000e+00     0.000000e+00   
H21  0.000000e+00    -1.830329e+00     0.000000e+00     8.002655e-01     0.000000e+00     0.000000e+00   
H21  0.000000e+00    -1.206312e+00     0.000000e+00     8.869155e-01     0.000000e+00     0.000000e+00   
H21  0.000000e+00    -1.931868e+00     0.000000e+00     8.634771e-01     0.000000e+00     0.000000e+00   
H21  0.000000e+00    -2.075229e+00     0.000000e+00     7.613866e-01     0.000000e+00     0.000000e+00   
H21  0.000000e+00    -1.533720e+00     0.000000e+00     9.096508e-01     0.000000e+00     0.000000e+00   
H21  0.000000e+00    -8.968699e-01     0.000000e+00     8.971646e-01     0.000000e+00     0.000000e+00   
H21  0.000000e+00    -1.888497e+00     0.000000e+00     8.831406e-01     0.000000e+00     0.000000e+00   
H21  0.000000e+00    -7.819221e+00     0.000000e+00     8.024286e-01     0.000000e+00     0.000000e+00   
H21  0.000000e+00    -1.315472e+00     0.000000e+00     7.895871e-01     0.000000e+00     0.000000e+00   
H21  0.000000e+00    -1.559992e+00     0.000000e+00     8.348591e-01     0.000000e+00     0.000000e+00   
H21  0.000000e+00    -7.696687e-01     0.000000e+00     9.527714e-01     0.000000e+00     0.000000e+00   
H21  0.000000e+00    -1.486588e+00     0.000000e+00     9.342323e-01     0.000000e+00     0.000000e+00   
H21  0.000000e+00    -1.466532e+00     0.000000e+00     8.172099e-01     0.000000e+00     0.000000e+00   
H21  0.000000e+00    -1.745413e+00     0.000000e+00     8.840230e-01     0.000000e+00     0.000000e+00   
H21  0.000000e+00    -1.834381e+00     0.000000e+00     5.426824e-01     0.000000e+00     0.000000e+00   
H21  0.000000e+00    -1.657454e+00     0.000000e+00     6.157336e-01     0.000000e+00     0.000000e+00   
H21  0.000000e+00    -2.038015e+00     0.000000e+00     4.430678e-01     0.000000e+00     0.000000e+00   
H21  0.000000e+00    -2.119002e+00     0.000000e+00     3.519537e-01     0.000000e+00     0.000000e+00   
H21  0.000000e+00     1.049187e+01     0.000000e+00     6.885559e-01     0.000000e+00     0.000000e+00   
H21  0.000000e+00     4.450725e+00     0.000000e+00     5.766218e-01     0.000000e+00     0.000000e+00   
H21  0.000000e+00     1.096503e+01     0.000000e+00     8.647282e-01     0.000000e+00     0.000000e+00   
H21  0.000000e+00    -2.093214e+00     0.000000e+00     7.066806e-01     0.000000e+00     0.000000e+00   
H21  0.000000e+00    -2.266463e+00     0.000000e+00     5.929952e-01     0.000000e+00     0.000000e+00   
H21  0.000000e+00    -2.544563e+00     0.000000e+00     3.717543e-01     0.000000e+00     0.000000e+00   
H21  0.000000e+00    -2.591311e+00     0.000000e+00     2.168310e-01     0.000000e+00     0.000000e+00   
H21  0.000000e+00    -2.862810e+00     0.000000e+00     4.481635e-02     0.000000e+00     0.000000e+00   
H21  0.000000e+00    -9.306709e+00     0.000000e+00    -1.542391e-02     0.000000e+00     0.000000e+00   
H21  0.000000e+00    -3.021168e+00     0.000000e+00     2.188582e-01     0.000000e+00     0.000000e+00   
H21  0.000000e+00    -3.168701e+00     0.000000e+00     2.556872e-01     0.000000e+00     0.000000e+00   
H21  0.000000e+00    -2.934183e+00     0.000000e+00    -2.420027e-01     0.000000e+00     0.000000e+00   
H21  0.000000e+00    -2.869008e+00     0.000000e+00    -2.994444e-01     0.000000e+00     0.000000e+00   
H21  0.000000e+00    -2.977055e+00     0.000000e+00    -1.516147e-01     0.000000e+00     0.000000e+00   
H21  0.000000e+00    -2.861161e+00     0.000000e+00     1.010852e-01     0.000000e+00     0.000000e+00   
H21  0.000000e+00    -2.995803e+00     0.000000e+00     2.938970e-01     0.000000e+00     0.000000e+00   
H21  0.000000e+00    -3.240565e+00     0.000000e+00     4.714304e-01     0.000000e+00     0.000000e+00   
H21  0.000000e+00    -3.359551e+00     0.000000e+00     3.842295e-01     0.000000e+00     0.000000e+00   
H21  0.000000e+00    -3.130668e+00     0.000000e+00     4.249266e-01     0.000000e+00     0.000000e+00   
H21  0.000000e+00    -9.152184e+00     0.000000e+00     1.118976e-01     0.000000e+00     0.000000e+00   
H21  0.000000e+00     2.977634e+00     0.000000e+00     1.381919e-01     0.000000e+00     0.000000e+00   
H21  0.000000e+00     2.815572e+00     0.000000e+00    -2.818158e-01     0.000000e+00     0.000000e+00   
H21  0.000000e+00     2.750066e+00     0.000000e+00    -5.956300e-02     0.000000e+00     0.000000e+00   
H21  0.000000e+00     2.916532e+00     0.000000e+00    -6.719046e-02     0.000000e+00     0.000000e+00   
H21  0.000000e+00     2.880343e+00     0.000000e+00     1.358490e-02     0.000000e+00     0.000000e+00   
H21  0.000000e+00    -3.117384e+00     0.000000e+00     5.294949e-02     0.000000e+00     0.000000e+00   
H21  0.000000e+00     3.364195e+00     0.000000e+00    -3.742088e-02     0.000000e+00     0.000000e+00   
H21  0.000000e+00     3.343895e+00     0.000000e+00    -1.256408e-01     0.000000e+00     0.000000e+00   
H21  0.000000e+00     3.517707e+00     0.000000e+00    -3.390581e-01     0.000000e+00     0.000000e+00   
H21  0.000000e+00     3.535455e+00     0.000000e+00    -6.838688e-01     0.000000e+00     0.000000e+00   
H21  0.000000e+00     3.766200e+00     0.000000e+00    -7.811861e-01     0.000000e+00     0.000000e+00   
H21  0.000000e+00    -2.384567e+00     0.000000e+00    -9.012363e-01     0.000000e+00     0.000000e+00   
H21  0.000000e+00     3.911229e+00     0.000000e+00    -8.326202e-01     0.000000e+00     0.000000e+00   
H21  0.000000e+00     3.869946e+00     0.000000e+00    -7.507126e-01     0.000000e+00     0.000000e+00   
H21  0.000000e+00     3.960660e+00     0.000000e+00    -5.349412e-01     0.000000e+00     0.000000e+00   
H21  0.000000e+00     3.814961e+00     0.000000e+00    -5.328169e-01     0.000000e+00     0.000000e+00   
H21  0.000000e+00     3.801212e+00     0.000000e+00    -3.299930e-01     0.000000e+00     0.000000e+00   
H21  0.000000e+00     3.831357e+00     0.000000e+00    -1.808246e-01     0.000000e+00     0.000000e+00   
H21  0.000000e+00     3.772505e+00     0.000000e+00    -2.430637e-01     0.000000e+00     0.000000e+00   
H21  0.000000e+00     3.895672e+00     0.000000e+00    -1.302085e-01     0.000000e+00     0.000000e+00   
H21  0.000000e+00     3.730232e+00     0.000000e+00     3.055511e-01     0.000000e+00     0.000000e+00   
H21  0.000000e+00     3.964882e+00     0.000000e+00     1.633781e-01     0.000000e+00     0.000000e+00   
H21  0.000000e+00     3.671575e+00     0.000000e+00     4.185562e-01     0.000000e+00     0.000000e+00   
H21  0.000000e+00     3.858214e+00     0.000000e+00     2.376016e-01     0.000000e+00     0.000000e+00   
H21  0.000000e+00     3.838031e+00     0.000000e+00     1.929522e-02     0.000000e+00     0.000000e+00   
H21  0.000000e+00     3.323863e+00     0.000000e+00     1.062827e-01     0.000000e+00     0.000000e+00   
H21  0.000000e+00     3.274916e+00     0.000000e+00     9.023887e-02     0.000000e+00     0.000000e+00   
H21  0.000000e+00     3.023450e+00     0.000000e+00    -2.109480e-02     0.000000e+00     0.000000e+00   
H21  0.000000e+00     2.805431e+00     0.000000e+00    -6.012593e-01     0.000000e+00     0.000000e+00   
H21  0.000000e+00     2.568355e+00     0.000000e+00    -3.912071e-01     0.000000e+00     0.000000e+00   
H21  0.000000e+00     2.559071e+00     0.000000e+00    -5.001110e-01     0.000000e+00     0.000000e+00   
H21  0.000000e+00     2.248704e+00     0.000000e+00    -6.856010e-01     0.000000e+00     0.000000e+00   
H21  0.000000e+00     1.948930e+00     0.000000e+00    -8.248511e-01     0.000000e+00     0.000000e+00   
H21  0.000000e+00     9.131238e+00     0.000000e+00    -9.866323e-01     0.000000e+00     0.000000e+00   
H21  0.000000e+00     9.848993e+00     0.000000e+00    -9.041556e-01     0.000000e+00     0.000000e+00   
H21  0.000000e+00     8.883154e+00     0.000000e+00    -6.487325e-01     0.000000e+00     0.000000e+00   
H21  0.000000e+00     8.909041e+00     0.000000e+00    -5.895519e-01     0.000000e+00     0.000000e+00   
H21  0.000000e+00     9.195975e+00     0.000000e+00    -4.877246e-01     0.000000e+00     0.000000e+00   
H21  0.000000e+00     9.298632e+00     0.000000e+00    -4.322471e-01     0.000000e+00     0.000000e+00   
H21  0.000000e+00     8.973421e+00     0.000000e+00    -9.062375e-01     0.000000e+00     0.000000e+00   
H21  0.000000e+00     8.624507e+00     0.000000e+00    -8.568279e-01     0.000000e+00     0.000000e+00   
H21  0.000000e+00     9.953862e+00     0.000000e+00    -9.762957e-01     0.000000e+00     0.000000e+00   
H21  0.000000e+00     1.018183e+01     0.000000e+00    -9.629177e-01     0.000000e+00     0.000000e+00   
H21  0.000000e+00     9.732299e+00     0.000000e+00    -8.524193e-01     0.000000e+00     0.000000e+00   
H21  0.000000e+00     8.128371e+00     0.000000e+00    -9.019575e-01     0.000000e+00     0.000000e+00   
H21  0.000000e+00     7.358394e+00     0.000000e+00    -9.830845e-01     0.000000e+00     0.000000e+00   
H21  0.000000e+00     7.592466e+00     0.000000e+00    -9.742610e-01     0.000000e+00     0.000000e+00   
H21  0.000000e+00     8.858359e+00     0.000000e+00    -8.045731e-01     0.000000e+00     0.000000e+00   
H21  0.000000e+00     8.616744e+00     0.000000e+00    -7.337974e-01     0.000000e+00     0.000000e+00   
H21  0.000000e+00     8.520737e+00     0.000000e+00    -6.547863e-01     0.000000e+00     0.000000e+00   
H21  0.000000e+00     8.351003e+00     0.000000e+00    -5.424869e-01     0.000000e+00     0.000000e+00   
H21  0.000000e+00     8.217535e+00     0.000000e+00    -2.725430e-01     0.000000e+00     0.000000e+00   
H21  0.000000e+00     1.413106e+01     0.000000e+00     5.196674e-02     0.000000e+00     0.000000e+00   
H21  0.000000e+00     1.443078e+01     0.000000e+00     2.644675e-01     0.000000e+00     0.000000e+00   
H21  0.000000e+00     8.202977e+00     0.000000e+00     3.643223e-01     0.000000e+00     0.000000e+00   
H21  0.000000e+00     2.377415e+00     0.000000e+00     4.946433e-01     0.000000e+00     0.000000e+00   
H21  0.000000e+00     8.680640e+00     0.000000e+00     6.052080e-01     0.000000e+00     0.000000e+00   
H21  0.000000e+00     8.460735e+00     0.000000e+00     5.831895e-01     0.000000e+00     0.000000e+00   
