128 
#   xyz format:  [atom type]  x y z (Angstrom) 
H21  0.000000e+00     2.063212e+00     0.000000e+00     6.790630e-01     0.000000e+00     0.000000e+00   
H21  0.000000e+00     1.985882e+00     0.000000e+00     7.450166e-01     0.000000e+00     0.000000e+00   
H21  0.000000e+00     1.642169e+00     0.000000e+00     5.555522e-01     0.000000e+00     0.000000e+00   
H21  0.000000e+00     1.523538e+00     0.000000e+00     4.719762e-01     0.000000e+00     0.000000e+00   
H21  0.000000e+00     1.632947e+00     0.000000e+00     6.778508e-01     0.000000e+00     0.000000e+00   
H21  0.000000e+00    -4.633437e+00     0.000000e+00     6.727059e-01     0.000000e+00     0.000000e+00   
H21  0.000000e+00    -4.617159e+00     0.000000e+00     9.050436e-01     0.000000e+00     0.000000e+00   
H21  0.000000e+00    -4.835273e+00     0.000000e+00     9.424097e-01     0.000000e+00     0.000000e+00   
H21  0.000000e+00     3.979948e-01     0.000000e+00     9.792640e-01     0.000000e+00     0.000000e+00   
H21  0.000000e+00     6.481420e+00     0.000000e+00     8.820338e-01     0.000000e+00     0.000000e+00   
H21  0.000000e+00    -2.789094e-01     0.000000e+00     9.455062e-01     0.000000e+00     0.000000e+00   
H21  0.000000e+00     3.892574e-01     0.000000e+00     7.993034e-01     0.000000e+00     0.000000e+00   
H21  0.000000e+00     1.232812e-01     0.000000e+00     8.316865e-01     0.000000e+00     0.000000e+00   
H21  0.000000e+00    -5.339726e+00     0.000000e+00     5.805704e-01     0.000000e+00     0.000000e+00   
H21  0.000000e+00    -4.933813e+00     0.000000e+00     6.655441e-01     0.000000e+00     0.000000e+00   
H21  0.000000e+00    -4.762505e+00     0.000000e+00     6.783689e-01     0.000000e+00     0.000000e+00   
H21  0.000000e+00    -5.135800e+00     0.000000e+00     5.503391e-01     0.000000e+00     0.000000e+00   
H21  0.000000e+00    -5.462951e+00     0.000000e+00     5.543383e-01     0.000000e+00     0.000000e+00   
H21  0.000000e+00    -5.565831e+00     0.000000e+00     1.717610e-01     0.000000e+00     0.000000e+00   
H21  0.000000e+00    -5.262290e+00     0.000000e+00     2.844149e-01     0.000000e+00     0.000000e+00   
H21  0.000000e+00    -5.669107e+00     0.000000e+00     3.656501e-01     0.000000e+00     0.000000e+00   
H21  0.000000e+00    -5.455117e+00     0.000000e+00     3.853741e-01     0.000000e+00     0.000000e+00   
H21  0.000000e+00    -5.547287e+00     0.000000e+00     5.045814e-01     0.000000e+00     0.000000e+00   
H21  0.000000e+00    -5.198343e+00     0.000000e+00     6.295486e-01     0.000000e+00     0.000000e+00   
H21  0.000000e+00    -4.922373e+00     0.000000e+00     4.672281e-01     0.000000e+00     0.000000e+00   
H21  0.000000e+00    -4.613365e+00     0.000000e+00     3.124863e-01     0.000000e+00     0.000000e+00   
H21  0.000000e+00    -4.657347e+00     0.000000e+00     3.062647e-01     0.000000e+00     0.000000e+00   
H21  0.000000e+00    -4.509419e+00     0.000000e+00     3.257304e-01     0.000000e+00     0.000000e+00   
H21  0.000000e+00    -4.562660e+00     0.000000e+00     1.838622e-01     0.000000e+00     0.000000e+00   
H21  0.000000e+00    -4.374191e+00     0.000000e+00     1.229418e-01     0.000000e+00     0.000000e+00   
H21  0.000000e+00    -4.426070e+00     0.000000e+00    -3.561093e-02     0.000000e+00     0.000000e+00   
H21  0.000000e+00    -4.289958e+00     0.000000e+00    -1.121737e-01     0.000000e+00     0.000000e+00   
H21  0.000000e+00    -4.371525e+00     0.000000e+00     9.978676e-02     0.000000e+00     0.000000e+00   
H21  0.000000e+00    -4.222162e+00     0.000000e+00     2.478920e-01     0.000000e+00     0.000000e+00   
H21  0.000000e+00    -4.095908e+00     0.000000e+00     2.156666e-01     0.000000e+00     0.000000e+00   
H21  0.000000e+00    -4.169475e+00     0.000000e+00    -1.328677e-01     0.000000e+00     0.000000e+00   
H21  0.000000e+00    -3.822897e+00     0.000000e+00     1.038806e-01     0.000000e+00     0.000000e+00   
H21  0.000000e+00    -3.784219e+00     0.000000e+00     1.259177e-01     0.000000e+00     0.000000e+00   
H21  0.000000e+00    -3.590839e+00     0.000000e+00    -2.432410e-01     0.000000e+00     0.000000e+00   
H21  0.000000e+00    -9.985256e+00     0.000000e+00    -5.829625e-01     0.000000e+00     0.000000e+00   
H21  0.000000e+00    -4.038585e+00     0.000000e+00    -7.614245e-01     0.000000e+00     0.000000e+00   
H21  0.000000e+00    -3.815669e+00     0.000000e+00    -7.694743e-01     0.000000e+00     0.000000e+00   
H21  0.000000e+00    -3.817536e+00     0.000000e+00    -7.873442e-01     0.000000e+00     0.000000e+00   
H21  0.000000e+00    -4.097104e+00     0.000000e+00    -8.019165e-01     0.000000e+00     0.000000e+00   
H21  0.000000e+00    -3.718974e+00     0.000000e+00    -7.936846e-01     0.000000e+00     0.000000e+00   
H21  0.000000e+00    -3.991054e+00     0.000000e+00    -5.670577e-01     0.000000e+00     0.000000e+00   
H21  0.000000e+00    -3.681381e+00     0.000000e+00    -3.967085e-01     0.000000e+00     0.000000e+00   
H21  0.000000e+00    -3.857369e+00     0.000000e+00    -4.800000e-01     0.000000e+00     0.000000e+00   
H21  0.000000e+00    -3.755818e+00     0.000000e+00    -7.440943e-01     0.000000e+00     0.000000e+00   
H21  0.000000e+00    -3.646623e+00     0.000000e+00    -7.237655e-01     0.000000e+00     0.000000e+00   
H21  0.000000e+00     2.673297e+00     0.000000e+00    -3.894300e-01     0.000000e+00     0.000000e+00   
H21  0.000000e+00    -3.537231e+00     0.000000e+00    -5.520102e-01     0.000000e+00     0.000000e+00   
H21  0.000000e+00     2.846662e+00     0.000000e+00    -4.936310e-01     0.000000e+00     0.000000e+00   
H21  0.000000e+00    -4.034938e+00     0.000000e+00    -6.780722e-01     0.000000e+00     0.000000e+00   
H21  0.000000e+00    -3.962433e+00     0.000000e+00    -5.449008e-01     0.000000e+00     0.000000e+00   
H21  0.000000e+00    -3.725097e+00     0.000000e+00    -5.779120e-01     0.000000e+00     0.000000e+00   
H21  0.000000e+00    -3.745958e+00     0.000000e+00    -6.129508e-01     0.000000e+00     0.000000e+00   
H21  0.000000e+00    -3.815006e+00     0.000000e+00    -5.262234e-01     0.000000e+00     0.000000e+00   
H21  0.000000e+00    -1.004978e+01     0.000000e+00    -2.633464e-01     0.000000e+00     0.000000e+00   
H21  0.000000e+00    -3.706095e+00     0.000000e+00    -5.032006e-01     0.000000e+00     0.000000e+00   
H21  0.000000e+00    -3.881927e+00     0.000000e+00    -2.736230e-01     0.000000e+00     0.000000e+00   
H21  0.000000e+00    -3.919302e+00     0.000000e+00    -4.285851e-01     0.000000e+00     0.000000e+00   
H21  0.000000e+00    -4.080790e+00     0.000000e+00    -3.436850e-01     0.000000e+00     0.000000e+00   
H21  0.000000e+00    -3.798206e+00     0.000000e+00    -5.403246e-01     0.000000e+00     0.000000e+00   
H21  0.000000e+00    -3.931485e+00     0.000000e+00    -3.939963e-01     0.000000e+00     0.000000e+00   
H21  0.000000e+00    -4.291003e+00     0.000000e+00    -2.243737e-01     0.000000e+00     0.000000e+00   
H21  0.000000e+00    -3.927929e+00     0.000000e+00    -1.249932e-01     0.000000e+00     0.000000e+00   
H21  0.000000e+00    -3.765607e+00     0.000000e+00     1.198577e-01     0.000000e+00     0.000000e+00   
H21  0.000000e+00    -3.783795e+00     0.000000e+00     1.235174e-01     0.000000e+00     0.000000e+00   
H21  0.000000e+00    -1.016874e+01     0.000000e+00     1.627646e-01     0.000000e+00     0.000000e+00   
H21  0.000000e+00     2.161975e+00     0.000000e+00    -1.174275e-01     0.000000e+00     0.000000e+00   
H21  0.000000e+00     2.393845e+00     0.000000e+00    -2.618438e-01     0.000000e+00     0.000000e+00   
H21  0.000000e+00     2.217938e+00     0.000000e+00    -1.395652e-01     0.000000e+00     0.000000e+00   
H21  0.000000e+00     1.830907e+00     0.000000e+00    -8.875817e-02     0.000000e+00     0.000000e+00   
H21  0.000000e+00     1.179446e+00     0.000000e+00     8.952539e-02     0.000000e+00     0.000000e+00   
H21  0.000000e+00    -5.388331e+00     0.000000e+00     4.402816e-03     0.000000e+00     0.000000e+00   
H21  0.000000e+00     7.765607e-01     0.000000e+00    -3.050428e-01     0.000000e+00     0.000000e+00   
H21  0.000000e+00     1.039293e+00     0.000000e+00    -2.813028e-01     0.000000e+00     0.000000e+00   
H21  0.000000e+00     7.306447e+00     0.000000e+00    -5.590883e-01     0.000000e+00     0.000000e+00   
H21  0.000000e+00     7.642767e+00     0.000000e+00    -6.646837e-01     0.000000e+00     0.000000e+00   
H21  0.000000e+00     7.455643e+00     0.000000e+00    -8.807591e-01     0.000000e+00     0.000000e+00   
H21  0.000000e+00     1.151932e+00     0.000000e+00    -8.711672e-01     0.000000e+00     0.000000e+00   
H21  0.000000e+00     7.811991e+00     0.000000e+00    -7.298038e-01     0.000000e+00     0.000000e+00   
H21  0.000000e+00     7.324400e+00     0.000000e+00    -7.664674e-01     0.000000e+00     0.000000e+00   
H21  0.000000e+00     6.966281e+00     0.000000e+00    -5.670449e-01     0.000000e+00     0.000000e+00   
H21  0.000000e+00     6.866998e+00     0.000000e+00    -4.377866e-01     0.000000e+00     0.000000e+00   
H21  0.000000e+00     6.812111e+00     0.000000e+00    -4.144144e-01     0.000000e+00     0.000000e+00   
H21  0.000000e+00     6.908465e+00     0.000000e+00    -3.067065e-01     0.000000e+00     0.000000e+00   
H21  0.000000e+00     6.722905e+00     0.000000e+00    -3.184801e-01     0.000000e+00     0.000000e+00   
H21  0.000000e+00     6.920093e+00     0.000000e+00    -4.452434e-01     0.000000e+00     0.000000e+00   
H21  0.000000e+00     6.997067e+00     0.000000e+00    -4.133510e-01     0.000000e+00     0.000000e+00   
H21  0.000000e+00     6.367470e+00     0.000000e+00    -4.940069e-01     0.000000e+00     0.000000e+00   
H21  0.000000e+00     5.779803e+00     0.000000e+00    -4.671193e-01     0.000000e+00     0.000000e+00   
H21  0.000000e+00     6.307671e+00     0.000000e+00    -6.352522e-01     0.000000e+00     0.000000e+00   
H21  0.000000e+00     6.414487e+00     0.000000e+00    -3.039954e-01     0.000000e+00     0.000000e+00   
H21  0.000000e+00     6.229046e+00     0.000000e+00    -2.764549e-01     0.000000e+00     0.000000e+00   
H21  0.000000e+00     6.291917e+00     0.000000e+00    -3.817205e-01     0.000000e+00     0.000000e+00   
H21  0.000000e+00     6.366897e+00     0.000000e+00    -2.808184e-01     0.000000e+00     0.000000e+00   
H21  0.000000e+00     6.480953e+00     0.000000e+00    -2.178237e-01     0.000000e+00     0.000000e+00   
H21  0.000000e+00     6.540475e+00     0.000000e+00    -2.123365e-01     0.000000e+00     0.000000e+00   
H21  0.000000e+00     6.622539e+00     0.000000e+00    -3.342626e-01     0.000000e+00     0.000000e+00   
H21  0.000000e+00     6.375333e+00     0.000000e+00    -1.098738e-01     0.000000e+00     0.000000e+00   
H21  0.000000e+00     6.651415e+00     0.000000e+00    -2.110518e-01     0.000000e+00     0.000000e+00   
H21  0.000000e+00     6.429859e+00     0.000000e+00    -2.701967e-01     0.000000e+00     0.000000e+00   
H21  0.000000e+00     6.372498e+00     0.000000e+00     3.509536e-02     0.000000e+00     0.000000e+00   
H21  0.000000e+00     6.813214e+00     0.000000e+00     1.190429e-01     0.000000e+00     0.000000e+00   
H21  0.000000e+00     6.574900e+00     0.000000e+00    -5.527063e-02     0.000000e+00     0.000000e+00   
H21  0.000000e+00     6.893279e+00     0.000000e+00    -2.118873e-01     0.000000e+00     0.000000e+00   
H21  0.000000e+00     6.839842e+00     0.000000e+00    -1.503394e-01     0.000000e+00     0.000000e+00   
H21  0.000000e+00     6.646713e+00     0.000000e+00    -1.802845e-01     0.000000e+00     0.000000e+00   
H21  0.000000e+00     6.456615e+00     0.000000e+00    -1.386328e-01     0.000000e+00     0.000000e+00   
H21  0.000000e+00     6.220202e+00     0.000000e+00    -3.409990e-01     0.000000e+00     0.000000e+00   
H21  0.000000e+00     6.369451e+00     0.000000e+00    -2.098920e-01     0.000000e+00     0.000000e+00   
H21  0.000000e+00     6.405676e+00     0.000000e+00     1.626631e-01     0.000000e+00     0.000000e+00   
H21  0.000000e+00     6.573463e+00     0.000000e+00     1.654419e-01     0.000000e+00     0.000000e+00   
H21  0.000000e+00     6.699617e+00     0.000000e+00     9.629307e-02     0.000000e+00     0.000000e+00   
H21  0.000000e+00     6.624805e+00     0.000000e+00    -3.481619e-02     0.000000e+00     0.000000e+00   
H21  0.000000e+00     6.463968e+00     0.000000e+00     2.916684e-01     0.000000e+00     0.000000e+00   
H21  0.000000e+00     6.340494e+00     0.000000e+00     5.109350e-01     0.000000e+00     0.000000e+00   
H21  0.000000e+00     6.594967e+00     0.000000e+00     4.043971e-01     0.000000e+00     0.000000e+00   
H21  0.000000e+00     6.859780e+00     0.000000e+00     5.528208e-01     0.000000e+00     0.000000e+00   
H21  0.000000e+00     6.988907e+00     0.000000e+00     5.493702e-01     0.000000e+00     0.000000e+00   
H21  0.000000e+00     1.336176e+01     0.000000e+00     8.754333e-01     0.000000e+00     0.000000e+00   
H21  0.000000e+00     1.330558e+01     0.000000e+00     5.470192e-01     0.000000e+00     0.000000e+00   
H21  0.000000e+00     7.004095e+00     0.000000e+00     5.125243e-01     0.000000e+00     0.000000e+00   
H21  0.000000e+00     5.406500e-01     0.000000e+00     5.872879e-01     0.000000e+00     0.000000e+00   
H21  0.000000e+00     6.585575e+00     0.000000e+00     4.907538e-01     0.000000e+00     0.000000e+00   
H21  0.000000e+00     4.919191e-02     0.000000e+00     9.502310e-02     0.000000e+00     0.000000e+00   
