128 
#   xyz format:  [atom type]  x y z (Angstrom) 
H21  0.000000e+00     4.041233e+00     0.000000e+00     3.841432e-01     0.000000e+00     0.000000e+00   
H21  0.000000e+00     3.764388e+00     0.000000e+00     3.010322e-01     0.000000e+00     0.000000e+00   
H21  0.000000e+00     3.995639e+00     0.000000e+00     3.368589e-01     0.000000e+00     0.000000e+00   
H21  0.000000e+00     3.732489e+00     0.000000e+00     1.074617e-01     0.000000e+00     0.000000e+00   
H21  0.000000e+00     3.465020e+00     0.000000e+00    -1.177301e-01     0.000000e+00     0.000000e+00   
H21  0.000000e+00    -2.947343e+00     0.000000e+00    -2.890050e-01     0.000000e+00     0.000000e+00   
H21  0.000000e+00    -2.745898e+00     0.000000e+00    -6.641760e-01     0.000000e+00     0.000000e+00   
H21  0.000000e+00    -3.102989e+00     0.000000e+00    -7.648078e-01     0.000000e+00     0.000000e+00   
H21  0.000000e+00     2.788973e+00     0.000000e+00    -8.053553e-01     0.000000e+00     0.000000e+00   
H21  0.000000e+00     9.192777e+00     0.000000e+00    -7.421401e-01     0.000000e+00     0.000000e+00   
H21  0.000000e+00     3.360060e+00     0.000000e+00    -7.717892e-01     0.000000e+00     0.000000e+00   
H21  0.000000e+00     3.359341e+00     0.000000e+00    -6.852643e-01     0.000000e+00     0.000000e+00   
H21  0.000000e+00     3.173983e+00     0.000000e+00    -5.931209e-01     0.000000e+00     0.000000e+00   
H21  0.000000e+00    -3.047109e+00     0.000000e+00    -6.764863e-01     0.000000e+00     0.000000e+00   
H21  0.000000e+00    -2.640827e+00     0.000000e+00    -6.215814e-01     0.000000e+00     0.000000e+00   
H21  0.000000e+00    -2.693216e+00     0.000000e+00    -5.458985e-01     0.000000e+00     0.000000e+00   
H21  0.000000e+00    -2.908560e+00     0.000000e+00    -5.652697e-01     0.000000e+00     0.000000e+00   
H21  0.000000e+00    -2.517751e+00     0.000000e+00    -4.487635e-01     0.000000e+00     0.000000e+00   
H21  0.000000e+00    -2.135954e+00     0.000000e+00    -7.874545e-01     0.000000e+00     0.000000e+00   
H21  0.000000e+00    -2.360457e+00     0.000000e+00    -8.312230e-01     0.000000e+00     0.000000e+00   
H21  0.000000e+00    -2.002443e+00     0.000000e+00    -9.201054e-01     0.000000e+00     0.000000e+00   
H21  0.000000e+00    -1.858813e+00     0.000000e+00    -6.942327e-01     0.000000e+00     0.000000e+00   
H21  0.000000e+00    -2.156109e+00     0.000000e+00    -9.274228e-01     0.000000e+00     0.000000e+00   
H21  0.000000e+00    -2.827561e+00     0.000000e+00    -7.639579e-01     0.000000e+00     0.000000e+00   
H21  0.000000e+00    -3.109459e+00     0.000000e+00    -6.592964e-01     0.000000e+00     0.000000e+00   
H21  0.000000e+00    -3.119541e+00     0.000000e+00    -5.654610e-01     0.000000e+00     0.000000e+00   
H21  0.000000e+00    -2.768976e+00     0.000000e+00    -6.933392e-01     0.000000e+00     0.000000e+00   
H21  0.000000e+00    -3.080887e+00     0.000000e+00    -5.736253e-01     0.000000e+00     0.000000e+00   
H21  0.000000e+00    -3.006429e+00     0.000000e+00    -4.371953e-01     0.000000e+00     0.000000e+00   
H21  0.000000e+00    -2.933584e+00     0.000000e+00    -7.527165e-01     0.000000e+00     0.000000e+00   
H21  0.000000e+00    -3.381475e+00     0.000000e+00    -7.560036e-01     0.000000e+00     0.000000e+00   
H21  0.000000e+00    -3.757975e+00     0.000000e+00    -8.511115e-01     0.000000e+00     0.000000e+00   
H21  0.000000e+00    -3.374750e+00     0.000000e+00    -9.429925e-01     0.000000e+00     0.000000e+00   
H21  0.000000e+00    -3.304992e+00     0.000000e+00    -8.494541e-01     0.000000e+00     0.000000e+00   
H21  0.000000e+00    -3.379805e+00     0.000000e+00    -7.457064e-01     0.000000e+00     0.000000e+00   
H21  0.000000e+00    -3.543437e+00     0.000000e+00    -6.607064e-01     0.000000e+00     0.000000e+00   
H21  0.000000e+00    -3.766293e+00     0.000000e+00    -6.207693e-01     0.000000e+00     0.000000e+00   
H21  0.000000e+00    -3.648464e+00     0.000000e+00    -7.621763e-01     0.000000e+00     0.000000e+00   
H21  0.000000e+00    -3.568464e+00     0.000000e+00    -7.328691e-01     0.000000e+00     0.000000e+00   
H21  0.000000e+00    -9.939579e+00     0.000000e+00    -2.312229e-01     0.000000e+00     0.000000e+00   
H21  0.000000e+00    -3.677781e+00     0.000000e+00    -4.482289e-01     0.000000e+00     0.000000e+00   
H21  0.000000e+00    -3.945199e+00     0.000000e+00    -6.082056e-01     0.000000e+00     0.000000e+00   
H21  0.000000e+00    -4.051354e+00     0.000000e+00    -4.453603e-01     0.000000e+00     0.000000e+00   
H21  0.000000e+00    -4.127604e+00     0.000000e+00    -8.566822e-01     0.000000e+00     0.000000e+00   
H21  0.000000e+00    -3.846482e+00     0.000000e+00    -9.333040e-01     0.000000e+00     0.000000e+00   
H21  0.000000e+00    -2.330020e+00     0.000000e+00    -9.174283e-01     0.000000e+00     0.000000e+00   
H21  0.000000e+00    -2.266955e+00     0.000000e+00    -8.542536e-01     0.000000e+00     0.000000e+00   
H21  0.000000e+00    -2.216139e+00     0.000000e+00    -7.096027e-01     0.000000e+00     0.000000e+00   
H21  0.000000e+00    -1.879756e+00     0.000000e+00    -7.514437e-01     0.000000e+00     0.000000e+00   
H21  0.000000e+00    -2.137386e+00     0.000000e+00    -8.844584e-01     0.000000e+00     0.000000e+00   
H21  0.000000e+00     3.920938e+00     0.000000e+00    -8.671291e-01     0.000000e+00     0.000000e+00   
H21  0.000000e+00    -1.229450e+00     0.000000e+00    -9.817351e-01     0.000000e+00     0.000000e+00   
H21  0.000000e+00     4.829885e+00     0.000000e+00    -8.669772e-01     0.000000e+00     0.000000e+00   
H21  0.000000e+00    -1.336960e+00     0.000000e+00    -8.237744e-01     0.000000e+00     0.000000e+00   
H21  0.000000e+00    -1.144013e+00     0.000000e+00    -9.538630e-01     0.000000e+00     0.000000e+00   
H21  0.000000e+00    -1.299669e+00     0.000000e+00    -9.198186e-01     0.000000e+00     0.000000e+00   
H21  0.000000e+00    -1.138614e+00     0.000000e+00    -9.267266e-01     0.000000e+00     0.000000e+00   
H21  0.000000e+00    -1.463894e+00     0.000000e+00    -9.390345e-01     0.000000e+00     0.000000e+00   
H21  0.000000e+00    -7.443107e+00     0.000000e+00    -7.875839e-01     0.000000e+00     0.000000e+00   
H21  0.000000e+00    -5.469590e-01     0.000000e+00    -8.093800e-01     0.000000e+00     0.000000e+00   
H21  0.000000e+00    -1.061222e+00     0.000000e+00    -7.349201e-01     0.000000e+00     0.000000e+00   
H21  0.000000e+00    -1.053221e+00     0.000000e+00    -7.353355e-01     0.000000e+00     0.000000e+00   
H21  0.000000e+00    -5.855447e-01     0.000000e+00    -7.664365e-01     0.000000e+00     0.000000e+00   
H21  0.000000e+00    -1.951281e-01     0.000000e+00    -8.056937e-01     0.000000e+00     0.000000e+00   
H21  0.000000e+00    -7.301999e-01     0.000000e+00    -6.914250e-01     0.000000e+00     0.000000e+00   
H21  0.000000e+00    -7.310900e-01     0.000000e+00    -6.971560e-01     0.000000e+00     0.000000e+00   
H21  0.000000e+00    -4.074437e-01     0.000000e+00    -7.430958e-01     0.000000e+00     0.000000e+00   
H21  0.000000e+00    -3.897391e-01     0.000000e+00    -4.926025e-01     0.000000e+00     0.000000e+00   
H21  0.000000e+00    -3.812161e-01     0.000000e+00    -4.949206e-01     0.000000e+00     0.000000e+00   
H21  0.000000e+00    -6.389898e+00     0.000000e+00    -2.745482e-01     0.000000e+00     0.000000e+00   
H21  0.000000e+00    -2.557742e-01     0.000000e+00    -1.686791e-01     0.000000e+00     0.000000e+00   
H21  0.000000e+00    -1.937453e-01     0.000000e+00     1.421403e-01     0.000000e+00     0.000000e+00   
H21  0.000000e+00    -2.979677e-01     0.000000e+00     3.804619e-01     0.000000e+00     0.000000e+00   
H21  0.000000e+00    -3.155745e-01     0.000000e+00     4.709482e-02     0.000000e+00     0.000000e+00   
H21  0.000000e+00    -4.846773e-01     0.000000e+00     6.116254e-02     0.000000e+00     0.000000e+00   
H21  0.000000e+00    -6.815731e+00     0.000000e+00    -1.097897e-01     0.000000e+00     0.000000e+00   
H21  0.000000e+00    -6.693101e-01     0.000000e+00    -2.336850e-01     0.000000e+00     0.000000e+00   
H21  0.000000e+00    -5.989486e-01     0.000000e+00    -3.038639e-01     0.000000e+00     0.000000e+00   
H21  0.000000e+00     5.649586e+00     0.000000e+00     5.561370e-02     0.000000e+00     0.000000e+00   
H21  0.000000e+00     5.649163e+00     0.000000e+00    -2.399613e-01     0.000000e+00     0.000000e+00   
H21  0.000000e+00     5.791719e+00     0.000000e+00    -3.961768e-01     0.000000e+00     0.000000e+00   
H21  0.000000e+00    -5.122346e-01     0.000000e+00    -5.685010e-01     0.000000e+00     0.000000e+00   
H21  0.000000e+00     5.578517e+00     0.000000e+00    -7.224007e-01     0.000000e+00     0.000000e+00   
H21  0.000000e+00     5.465119e+00     0.000000e+00    -8.962495e-01     0.000000e+00     0.000000e+00   
H21  0.000000e+00     5.522623e+00     0.000000e+00    -7.563377e-01     0.000000e+00     0.000000e+00   
H21  0.000000e+00     5.662912e+00     0.000000e+00    -5.259947e-01     0.000000e+00     0.000000e+00   
H21  0.000000e+00     5.755779e+00     0.000000e+00    -3.103530e-01     0.000000e+00     0.000000e+00   
H21  0.000000e+00     6.203174e+00     0.000000e+00    -3.443130e-01     0.000000e+00     0.000000e+00   
H21  0.000000e+00     5.842946e+00     0.000000e+00    -2.653785e-01     0.000000e+00     0.000000e+00   
H21  0.000000e+00     5.635634e+00     0.000000e+00    -4.308527e-01     0.000000e+00     0.000000e+00   
H21  0.000000e+00     5.584118e+00     0.000000e+00    -4.586646e-01     0.000000e+00     0.000000e+00   
H21  0.000000e+00     5.866249e+00     0.000000e+00    -6.781824e-01     0.000000e+00     0.000000e+00   
H21  0.000000e+00     5.469547e+00     0.000000e+00    -8.615403e-01     0.000000e+00     0.000000e+00   
H21  0.000000e+00     5.913108e+00     0.000000e+00    -8.942084e-01     0.000000e+00     0.000000e+00   
H21  0.000000e+00     6.373625e+00     0.000000e+00    -8.611541e-01     0.000000e+00     0.000000e+00   
H21  0.000000e+00     6.663068e+00     0.000000e+00    -5.403485e-01     0.000000e+00     0.000000e+00   
H21  0.000000e+00     6.914806e+00     0.000000e+00    -6.489272e-01     0.000000e+00     0.000000e+00   
H21  0.000000e+00     7.393552e+00     0.000000e+00    -4.086513e-01     0.000000e+00     0.000000e+00   
H21  0.000000e+00     7.420509e+00     0.000000e+00    -2.719554e-01     0.000000e+00     0.000000e+00   
H21  0.000000e+00     7.746715e+00     0.000000e+00    -2.029353e-01     0.000000e+00     0.000000e+00   
H21  0.000000e+00     7.959533e+00     0.000000e+00    -2.081220e-01     0.000000e+00     0.000000e+00   
H21  0.000000e+00     7.716697e+00     0.000000e+00    -1.781586e-01     0.000000e+00     0.000000e+00   
H21  0.000000e+00     7.527320e+00     0.000000e+00    -2.062403e-01     0.000000e+00     0.000000e+00   
H21  0.000000e+00     7.397639e+00     0.000000e+00    -3.064337e-01     0.000000e+00     0.000000e+00   
H21  0.000000e+00     7.496411e+00     0.000000e+00    -2.630208e-01     0.000000e+00     0.000000e+00   
H21  0.000000e+00     7.570697e+00     0.000000e+00    -5.440497e-02     0.000000e+00     0.000000e+00   
H21  0.000000e+00     7.788205e+00     0.000000e+00     1.429647e-01     0.000000e+00     0.000000e+00   
H21  0.000000e+00     7.946561e+00     0.000000e+00    -2.427240e-01     0.000000e+00     0.000000e+00   
H21  0.000000e+00     7.684041e+00     0.000000e+00    -1.600321e-01     0.000000e+00     0.000000e+00   
H21  0.000000e+00     7.592529e+00     0.000000e+00    -2.518072e-01     0.000000e+00     0.000000e+00   
H21  0.000000e+00     7.465009e+00     0.000000e+00    -2.527630e-01     0.000000e+00     0.000000e+00   
H21  0.000000e+00     7.454944e+00     0.000000e+00    -4.152196e-01     0.000000e+00     0.000000e+00   
H21  0.000000e+00     7.697857e+00     0.000000e+00    -5.965480e-01     0.000000e+00     0.000000e+00   
H21  0.000000e+00     7.243947e+00     0.000000e+00    -4.323246e-01     0.000000e+00     0.000000e+00   
H21  0.000000e+00     7.288344e+00     0.000000e+00    -4.124020e-01     0.000000e+00     0.000000e+00   
H21  0.000000e+00     7.377579e+00     0.000000e+00    -2.694631e-01     0.000000e+00     0.000000e+00   
H21  0.000000e+00     7.356296e+00     0.000000e+00    -2.108501e-01     0.000000e+00     0.000000e+00   
H21  0.000000e+00     7.024108e+00     0.000000e+00    -1.758148e-01     0.000000e+00     0.000000e+00   
H21  0.000000e+00     6.982083e+00     0.000000e+00     1.056668e-01     0.000000e+00     0.000000e+00   
H21  0.000000e+00     6.789474e+00     0.000000e+00     6.991311e-02     0.000000e+00     0.000000e+00   
H21  0.000000e+00     6.971331e+00     0.000000e+00     1.453394e-01     0.000000e+00     0.000000e+00   
H21  0.000000e+00     7.482349e+00     0.000000e+00     1.296788e-02     0.000000e+00     0.000000e+00   
H21  0.000000e+00     7.687673e+00     0.000000e+00     7.451680e-02     0.000000e+00     0.000000e+00   
H21  0.000000e+00     7.901671e+00     0.000000e+00    -1.791766e-01     0.000000e+00     0.000000e+00   
H21  0.000000e+00     1.647124e+00     0.000000e+00     1.856314e-01     0.000000e+00     0.000000e+00   
H21  0.000000e+00     1.324582e+00     0.000000e+00     4.247242e-03     0.000000e+00     0.000000e+00   
H21  0.000000e+00     7.134909e+00     0.000000e+00     5.644684e-01     0.000000e+00     0.000000e+00   
H21  0.000000e+00     1.008886e+00     0.000000e+00     5.412692e-01     0.000000e+00     0.000000e+00   
