128 
#   xyz format:  [atom type]  x y z (Angstrom) 
H21  0.000000e+00     5.818403e+00     0.000000e+00    -2.412373e-01     0.000000e+00     0.000000e+00   
H21  0.000000e+00     5.855142e+00     0.000000e+00    -4.762774e-02     0.000000e+00     0.000000e+00   
H21  0.000000e+00     5.516979e+00     0.000000e+00     8.208471e-02     0.000000e+00     0.000000e+00   
H21  0.000000e+00     5.532115e+00     0.000000e+00     1.547277e-01     0.000000e+00     0.000000e+00   
H21  0.000000e+00     5.076674e+00     0.000000e+00     4.097839e-01     0.000000e+00     0.000000e+00   
H21  0.000000e+00    -1.114067e+00     0.000000e+00     1.375210e-01     0.000000e+00     0.000000e+00   
H21  0.000000e+00    -1.143451e+00     0.000000e+00    -1.813174e-01     0.000000e+00     0.000000e+00   
H21  0.000000e+00    -1.433306e+00     0.000000e+00    -3.426804e-01     0.000000e+00     0.000000e+00   
H21  0.000000e+00    -1.569718e+00     0.000000e+00    -7.060021e-01     0.000000e+00     0.000000e+00   
H21  0.000000e+00    -1.630586e+00     0.000000e+00    -4.357150e-01     0.000000e+00     0.000000e+00   
H21  0.000000e+00    -1.502519e+00     0.000000e+00    -6.344111e-01     0.000000e+00     0.000000e+00   
H21  0.000000e+00    -1.137536e+00     0.000000e+00    -5.632930e-01     0.000000e+00     0.000000e+00   
H21  0.000000e+00    -1.067548e+00     0.000000e+00    -7.142872e-01     0.000000e+00     0.000000e+00   
H21  0.000000e+00    -9.196640e-01     0.000000e+00    -6.143654e-01     0.000000e+00     0.000000e+00   
H21  0.000000e+00    -1.028171e+00     0.000000e+00    -3.636245e-01     0.000000e+00     0.000000e+00   
H21  0.000000e+00    -1.381091e+00     0.000000e+00    -2.076807e-01     0.000000e+00     0.000000e+00   
H21  0.000000e+00    -1.377394e+00     0.000000e+00    -3.898402e-01     0.000000e+00     0.000000e+00   
H21  0.000000e+00    -1.637506e+00     0.000000e+00    -3.188456e-02     0.000000e+00     0.000000e+00   
H21  0.000000e+00    -2.066547e+00     0.000000e+00    -3.274800e-03     0.000000e+00     0.000000e+00   
H21  0.000000e+00    -2.107342e+00     0.000000e+00     1.267025e-01     0.000000e+00     0.000000e+00   
H21  0.000000e+00    -2.010450e+00     0.000000e+00     4.464862e-01     0.000000e+00     0.000000e+00   
H21  0.000000e+00    -2.061103e+00     0.000000e+00     4.332023e-01     0.000000e+00     0.000000e+00   
H21  0.000000e+00    -2.079125e+00     0.000000e+00     4.247501e-01     0.000000e+00     0.000000e+00   
H21  0.000000e+00    -2.152015e+00     0.000000e+00     6.239113e-01     0.000000e+00     0.000000e+00   
H21  0.000000e+00    -1.891910e+00     0.000000e+00     4.380390e-01     0.000000e+00     0.000000e+00   
H21  0.000000e+00    -2.183752e+00     0.000000e+00     1.726156e-01     0.000000e+00     0.000000e+00   
H21  0.000000e+00    -2.266588e+00     0.000000e+00     1.479195e-01     0.000000e+00     0.000000e+00   
H21  0.000000e+00    -2.120077e+00     0.000000e+00     5.608351e-02     0.000000e+00     0.000000e+00   
H21  0.000000e+00    -1.926727e+00     0.000000e+00    -4.046236e-03     0.000000e+00     0.000000e+00   
H21  0.000000e+00    -1.898754e+00     0.000000e+00    -2.536199e-01     0.000000e+00     0.000000e+00   
H21  0.000000e+00    -1.855932e+00     0.000000e+00    -4.126458e-01     0.000000e+00     0.000000e+00   
H21  0.000000e+00    -2.068724e+00     0.000000e+00    -5.570865e-01     0.000000e+00     0.000000e+00   
H21  0.000000e+00    -2.493633e+00     0.000000e+00    -8.089329e-01     0.000000e+00     0.000000e+00   
H21  0.000000e+00    -2.566618e+00     0.000000e+00    -8.653525e-01     0.000000e+00     0.000000e+00   
H21  0.000000e+00    -2.214747e+00     0.000000e+00    -8.171452e-01     0.000000e+00     0.000000e+00   
H21  0.000000e+00    -2.286766e+00     0.000000e+00    -8.577051e-01     0.000000e+00     0.000000e+00   
H21  0.000000e+00    -2.739755e+00     0.000000e+00    -9.468933e-01     0.000000e+00     0.000000e+00   
H21  0.000000e+00    -3.622779e+00     0.000000e+00    -8.843674e-01     0.000000e+00     0.000000e+00   
H21  0.000000e+00    -4.300411e+00     0.000000e+00    -9.443662e-01     0.000000e+00     0.000000e+00   
H21  0.000000e+00    -5.013484e+00     0.000000e+00    -9.995490e-01     0.000000e+00     0.000000e+00   
H21  0.000000e+00    -1.569684e+00     0.000000e+00    -9.800126e-01     0.000000e+00     0.000000e+00   
H21  0.000000e+00    -8.537260e-01     0.000000e+00    -8.860657e-01     0.000000e+00     0.000000e+00   
H21  0.000000e+00    -9.874580e-01     0.000000e+00    -8.084501e-01     0.000000e+00     0.000000e+00   
H21  0.000000e+00    -8.897500e-01     0.000000e+00    -9.416518e-01     0.000000e+00     0.000000e+00   
H21  0.000000e+00    -7.280748e-01     0.000000e+00    -9.113978e-01     0.000000e+00     0.000000e+00   
H21  0.000000e+00    -2.785268e+00     0.000000e+00    -9.691992e-01     0.000000e+00     0.000000e+00   
H21  0.000000e+00    -2.984608e+00     0.000000e+00    -8.598924e-01     0.000000e+00     0.000000e+00   
H21  0.000000e+00    -2.893735e+00     0.000000e+00    -8.003895e-01     0.000000e+00     0.000000e+00   
H21  0.000000e+00    -2.528323e+00     0.000000e+00    -7.095212e-01     0.000000e+00     0.000000e+00   
H21  0.000000e+00    -2.654229e+00     0.000000e+00    -6.768846e-01     0.000000e+00     0.000000e+00   
H21  0.000000e+00    -3.068877e+00     0.000000e+00    -5.815563e-01     0.000000e+00     0.000000e+00   
H21  0.000000e+00    -2.818897e+00     0.000000e+00    -6.420204e-01     0.000000e+00     0.000000e+00   
H21  0.000000e+00     3.586887e+00     0.000000e+00    -6.432463e-01     0.000000e+00     0.000000e+00   
H21  0.000000e+00    -2.463322e+00     0.000000e+00    -4.456321e-01     0.000000e+00     0.000000e+00   
H21  0.000000e+00    -2.338972e+00     0.000000e+00    -5.379292e-01     0.000000e+00     0.000000e+00   
H21  0.000000e+00    -2.691290e+00     0.000000e+00    -5.608113e-01     0.000000e+00     0.000000e+00   
H21  0.000000e+00    -3.024645e+00     0.000000e+00    -4.815050e-01     0.000000e+00     0.000000e+00   
H21  0.000000e+00    -2.679465e+00     0.000000e+00    -4.533438e-01     0.000000e+00     0.000000e+00   
H21  0.000000e+00    -8.943358e+00     0.000000e+00    -4.009995e-01     0.000000e+00     0.000000e+00   
H21  0.000000e+00    -3.100528e+00     0.000000e+00    -4.938364e-01     0.000000e+00     0.000000e+00   
H21  0.000000e+00    -3.225100e+00     0.000000e+00    -2.736752e-01     0.000000e+00     0.000000e+00   
H21  0.000000e+00    -3.253769e+00     0.000000e+00    -2.650661e-01     0.000000e+00     0.000000e+00   
H21  0.000000e+00    -3.516231e+00     0.000000e+00    -9.511346e-02     0.000000e+00     0.000000e+00   
H21  0.000000e+00    -3.553882e+00     0.000000e+00    -1.786299e-01     0.000000e+00     0.000000e+00   
H21  0.000000e+00    -3.378542e+00     0.000000e+00     1.366243e-01     0.000000e+00     0.000000e+00   
H21  0.000000e+00    -2.882028e+00     0.000000e+00     2.930397e-01     0.000000e+00     0.000000e+00   
H21  0.000000e+00    -2.796718e+00     0.000000e+00     7.060401e-01     0.000000e+00     0.000000e+00   
H21  0.000000e+00    -2.398515e+00     0.000000e+00     7.713183e-01     0.000000e+00     0.000000e+00   
H21  0.000000e+00    -2.144832e+00     0.000000e+00     7.630091e-01     0.000000e+00     0.000000e+00   
H21  0.000000e+00    -8.676386e+00     0.000000e+00     8.419238e-01     0.000000e+00     0.000000e+00   
H21  0.000000e+00    -2.554088e+00     0.000000e+00     9.185578e-01     0.000000e+00     0.000000e+00   
H21  0.000000e+00    -3.371001e+00     0.000000e+00     9.340724e-01     0.000000e+00     0.000000e+00   
H21  0.000000e+00    -3.904816e+00     0.000000e+00     9.121962e-01     0.000000e+00     0.000000e+00   
H21  0.000000e+00    -3.089729e+00     0.000000e+00     9.059347e-01     0.000000e+00     0.000000e+00   
H21  0.000000e+00    -2.764506e+00     0.000000e+00     8.755185e-01     0.000000e+00     0.000000e+00   
H21  0.000000e+00    -8.459633e+00     0.000000e+00     8.587625e-01     0.000000e+00     0.000000e+00   
H21  0.000000e+00    -2.081974e+00     0.000000e+00     6.174242e-01     0.000000e+00     0.000000e+00   
H21  0.000000e+00    -2.197221e+00     0.000000e+00     4.587331e-01     0.000000e+00     0.000000e+00   
H21  0.000000e+00     4.267619e+00     0.000000e+00     4.102758e-01     0.000000e+00     0.000000e+00   
H21  0.000000e+00     4.108732e+00     0.000000e+00     3.793422e-01     0.000000e+00     0.000000e+00   
H21  0.000000e+00     4.122855e+00     0.000000e+00    -1.224787e-01     0.000000e+00     0.000000e+00   
H21  0.000000e+00    -2.210581e+00     0.000000e+00    -1.407245e-01     0.000000e+00     0.000000e+00   
H21  0.000000e+00     4.055893e+00     0.000000e+00    -4.413792e-01     0.000000e+00     0.000000e+00   
H21  0.000000e+00     4.132888e+00     0.000000e+00    -4.882300e-01     0.000000e+00     0.000000e+00   
H21  0.000000e+00     3.583411e+00     0.000000e+00    -5.473892e-01     0.000000e+00     0.000000e+00   
H21  0.000000e+00     3.444312e+00     0.000000e+00    -5.780693e-01     0.000000e+00     0.000000e+00   
H21  0.000000e+00     3.303207e+00     0.000000e+00    -3.552221e-01     0.000000e+00     0.000000e+00   
H21  0.000000e+00     3.307080e+00     0.000000e+00    -1.061656e-01     0.000000e+00     0.000000e+00   
H21  0.000000e+00     3.257402e+00     0.000000e+00     1.396120e-01     0.000000e+00     0.000000e+00   
H21  0.000000e+00     2.717262e+00     0.000000e+00     4.698305e-02     0.000000e+00     0.000000e+00   
H21  0.000000e+00     2.730013e+00     0.000000e+00     1.488855e-01     0.000000e+00     0.000000e+00   
H21  0.000000e+00     2.586645e+00     0.000000e+00     3.725068e-01     0.000000e+00     0.000000e+00   
H21  0.000000e+00     2.556124e+00     0.000000e+00     4.737408e-01     0.000000e+00     0.000000e+00   
H21  0.000000e+00     2.786982e+00     0.000000e+00     4.719328e-01     0.000000e+00     0.000000e+00   
H21  0.000000e+00     2.587736e+00     0.000000e+00     4.020304e-01     0.000000e+00     0.000000e+00   
H21  0.000000e+00     3.003276e+00     0.000000e+00     3.243668e-01     0.000000e+00     0.000000e+00   
H21  0.000000e+00     3.245432e+00     0.000000e+00     4.087550e-01     0.000000e+00     0.000000e+00   
H21  0.000000e+00     3.541077e+00     0.000000e+00     4.190555e-01     0.000000e+00     0.000000e+00   
H21  0.000000e+00     3.246416e+00     0.000000e+00     3.076812e-01     0.000000e+00     0.000000e+00   
H21  0.000000e+00     3.463214e+00     0.000000e+00     3.888750e-01     0.000000e+00     0.000000e+00   
H21  0.000000e+00     3.470570e+00     0.000000e+00     2.743185e-01     0.000000e+00     0.000000e+00   
H21  0.000000e+00     3.826473e+00     0.000000e+00     3.324908e-01     0.000000e+00     0.000000e+00   
H21  0.000000e+00     3.847904e+00     0.000000e+00     3.095449e-01     0.000000e+00     0.000000e+00   
H21  0.000000e+00     4.068683e+00     0.000000e+00     1.062615e-01     0.000000e+00     0.000000e+00   
H21  0.000000e+00     3.869857e+00     0.000000e+00    -2.524643e-01     0.000000e+00     0.000000e+00   
H21  0.000000e+00     3.630138e+00     0.000000e+00     1.143529e-02     0.000000e+00     0.000000e+00   
H21  0.000000e+00     3.555805e+00     0.000000e+00    -7.509220e-02     0.000000e+00     0.000000e+00   
H21  0.000000e+00     3.224864e+00     0.000000e+00    -3.977745e-01     0.000000e+00     0.000000e+00   
H21  0.000000e+00     3.288027e+00     0.000000e+00    -4.233245e-01     0.000000e+00     0.000000e+00   
H21  0.000000e+00     2.922531e+00     0.000000e+00    -6.860847e-01     0.000000e+00     0.000000e+00   
H21  0.000000e+00     3.222974e+00     0.000000e+00    -6.926203e-01     0.000000e+00     0.000000e+00   
H21  0.000000e+00     3.188143e+00     0.000000e+00    -8.532390e-01     0.000000e+00     0.000000e+00   
H21  0.000000e+00     2.923479e+00     0.000000e+00    -7.649111e-01     0.000000e+00     0.000000e+00   
H21  0.000000e+00     3.198723e+00     0.000000e+00    -7.356159e-01     0.000000e+00     0.000000e+00   
H21  0.000000e+00     3.466286e+00     0.000000e+00    -7.585586e-01     0.000000e+00     0.000000e+00   
H21  0.000000e+00     3.323297e+00     0.000000e+00    -8.058412e-01     0.000000e+00     0.000000e+00   
H21  0.000000e+00     3.599962e+00     0.000000e+00    -8.856526e-01     0.000000e+00     0.000000e+00   
H21  0.000000e+00     3.807319e+00     0.000000e+00    -5.972023e-01     0.000000e+00     0.000000e+00   
H21  0.000000e+00     3.390810e+00     0.000000e+00    -7.395161e-01     0.000000e+00     0.000000e+00   
H21  0.000000e+00     3.540383e+00     0.000000e+00    -7.993325e-01     0.000000e+00     0.000000e+00   
H21  0.000000e+00     3.709834e+00     0.000000e+00    -8.293607e-01     0.000000e+00     0.000000e+00   
H21  0.000000e+00     3.857855e+00     0.000000e+00    -7.300395e-01     0.000000e+00     0.000000e+00   
H21  0.000000e+00     3.752958e+00     0.000000e+00    -6.817616e-01     0.000000e+00     0.000000e+00   
H21  0.000000e+00     3.058845e+00     0.000000e+00    -6.912175e-01     0.000000e+00     0.000000e+00   
H21  0.000000e+00    -3.092695e+00     0.000000e+00    -7.263226e-01     0.000000e+00     0.000000e+00   
H21  0.000000e+00    -3.490392e+00     0.000000e+00    -8.326492e-01     0.000000e+00     0.000000e+00   
H21  0.000000e+00     2.813144e+00     0.000000e+00    -9.807408e-01     0.000000e+00     0.000000e+00   
H21  0.000000e+00     1.679599e+00     0.000000e+00    -9.644737e-01     0.000000e+00     0.000000e+00   
