128 
#   xyz format:  [atom type]  x y z (Angstrom) 
H21  0.000000e+00     3.274000e+00     0.000000e+00    -5.504829e-02     0.000000e+00     0.000000e+00   
H21  0.000000e+00     3.012135e+00     0.000000e+00    -2.451432e-01     0.000000e+00     0.000000e+00   
H21  0.000000e+00     2.396987e+00     0.000000e+00    -9.193954e-02     0.000000e+00     0.000000e+00   
H21  0.000000e+00     2.755283e+00     0.000000e+00     5.885135e-02     0.000000e+00     0.000000e+00   
H21  0.000000e+00     3.251758e+00     0.000000e+00     8.808165e-02     0.000000e+00     0.000000e+00   
H21  0.000000e+00    -2.696753e+00     0.000000e+00    -5.511361e-01     0.000000e+00     0.000000e+00   
H21  0.000000e+00    -2.948280e+00     0.000000e+00    -6.711291e-01     0.000000e+00     0.000000e+00   
H21  0.000000e+00    -2.360868e+00     0.000000e+00    -5.801519e-01     0.000000e+00     0.000000e+00   
H21  0.000000e+00    -2.403870e+00     0.000000e+00    -4.463647e-01     0.000000e+00     0.000000e+00   
H21  0.000000e+00    -2.264255e+00     0.000000e+00    -3.657796e-01     0.000000e+00     0.000000e+00   
H21  0.000000e+00    -2.244354e+00     0.000000e+00    -1.097441e-01     0.000000e+00     0.000000e+00   
H21  0.000000e+00    -1.982217e+00     0.000000e+00    -4.374594e-02     0.000000e+00     0.000000e+00   
H21  0.000000e+00    -1.872641e+00     0.000000e+00    -3.899809e-01     0.000000e+00     0.000000e+00   
H21  0.000000e+00    -2.012187e+00     0.000000e+00    -2.104268e-01     0.000000e+00     0.000000e+00   
H21  0.000000e+00    -2.195678e+00     0.000000e+00    -2.279383e-01     0.000000e+00     0.000000e+00   
H21  0.000000e+00    -2.049940e+00     0.000000e+00    -4.328019e-01     0.000000e+00     0.000000e+00   
H21  0.000000e+00    -2.082894e+00     0.000000e+00    -1.149628e-01     0.000000e+00     0.000000e+00   
H21  0.000000e+00    -2.282396e+00     0.000000e+00    -1.856778e-01     0.000000e+00     0.000000e+00   
H21  0.000000e+00    -2.287526e+00     0.000000e+00    -6.001356e-03     0.000000e+00     0.000000e+00   
H21  0.000000e+00    -2.181852e+00     0.000000e+00     1.803861e-01     0.000000e+00     0.000000e+00   
H21  0.000000e+00    -2.397537e+00     0.000000e+00     2.208994e-02     0.000000e+00     0.000000e+00   
H21  0.000000e+00    -2.152828e+00     0.000000e+00     3.214574e-01     0.000000e+00     0.000000e+00   
H21  0.000000e+00    -1.991391e+00     0.000000e+00     3.455109e-01     0.000000e+00     0.000000e+00   
H21  0.000000e+00    -2.209354e+00     0.000000e+00     3.584030e-01     0.000000e+00     0.000000e+00   
H21  0.000000e+00    -1.858906e+00     0.000000e+00     4.764650e-01     0.000000e+00     0.000000e+00   
H21  0.000000e+00    -1.946164e+00     0.000000e+00     2.766801e-01     0.000000e+00     0.000000e+00   
H21  0.000000e+00    -1.703726e+00     0.000000e+00    -3.451001e-01     0.000000e+00     0.000000e+00   
H21  0.000000e+00    -1.232491e+00     0.000000e+00    -3.673919e-01     0.000000e+00     0.000000e+00   
H21  0.000000e+00    -8.600153e-01     0.000000e+00    -2.706498e-01     0.000000e+00     0.000000e+00   
H21  0.000000e+00    -7.870801e-01     0.000000e+00    -1.406672e-02     0.000000e+00     0.000000e+00   
H21  0.000000e+00    -9.960396e-01     0.000000e+00    -1.103034e-01     0.000000e+00     0.000000e+00   
H21  0.000000e+00    -8.767290e-01     0.000000e+00    -2.815684e-01     0.000000e+00     0.000000e+00   
H21  0.000000e+00    -9.383135e-01     0.000000e+00    -3.455169e-01     0.000000e+00     0.000000e+00   
H21  0.000000e+00    -8.108525e-01     0.000000e+00    -6.593144e-01     0.000000e+00     0.000000e+00   
H21  0.000000e+00    -8.472013e-01     0.000000e+00    -8.078965e-01     0.000000e+00     0.000000e+00   
H21  0.000000e+00    -1.547762e-01     0.000000e+00    -7.715800e-01     0.000000e+00     0.000000e+00   
H21  0.000000e+00    -1.867681e-02     0.000000e+00    -8.634466e-01     0.000000e+00     0.000000e+00   
H21  0.000000e+00     1.814547e-01     0.000000e+00    -7.025036e-01     0.000000e+00     0.000000e+00   
H21  0.000000e+00     5.834015e-01     0.000000e+00    -6.511721e-01     0.000000e+00     0.000000e+00   
H21  0.000000e+00    -5.459054e+00     0.000000e+00    -6.600360e-01     0.000000e+00     0.000000e+00   
H21  0.000000e+00     8.977094e-01     0.000000e+00    -8.534258e-01     0.000000e+00     0.000000e+00   
H21  0.000000e+00     1.022804e+00     0.000000e+00    -6.800403e-01     0.000000e+00     0.000000e+00   
H21  0.000000e+00     1.559476e+00     0.000000e+00    -7.358901e-01     0.000000e+00     0.000000e+00   
H21  0.000000e+00     2.234423e+00     0.000000e+00    -7.877402e-01     0.000000e+00     0.000000e+00   
H21  0.000000e+00     1.926358e+00     0.000000e+00    -8.552461e-01     0.000000e+00     0.000000e+00   
H21  0.000000e+00     1.880382e+00     0.000000e+00    -6.276090e-01     0.000000e+00     0.000000e+00   
H21  0.000000e+00     1.713523e+00     0.000000e+00    -6.662672e-01     0.000000e+00     0.000000e+00   
H21  0.000000e+00     1.695551e+00     0.000000e+00    -8.494548e-01     0.000000e+00     0.000000e+00   
H21  0.000000e+00     1.824242e+00     0.000000e+00    -8.686790e-01     0.000000e+00     0.000000e+00   
H21  0.000000e+00     1.435735e+00     0.000000e+00    -9.687674e-01     0.000000e+00     0.000000e+00   
H21  0.000000e+00     2.855995e-01     0.000000e+00    -9.899555e-01     0.000000e+00     0.000000e+00   
H21  0.000000e+00    -5.108139e-01     0.000000e+00    -9.315280e-01     0.000000e+00     0.000000e+00   
H21  0.000000e+00     5.258172e+00     0.000000e+00    -8.453539e-01     0.000000e+00     0.000000e+00   
H21  0.000000e+00    -1.044052e+00     0.000000e+00    -6.859664e-01     0.000000e+00     0.000000e+00   
H21  0.000000e+00    -1.275183e+00     0.000000e+00    -6.406115e-01     0.000000e+00     0.000000e+00   
H21  0.000000e+00    -1.343117e+00     0.000000e+00    -7.342226e-01     0.000000e+00     0.000000e+00   
H21  0.000000e+00    -1.818895e+00     0.000000e+00    -7.558147e-01     0.000000e+00     0.000000e+00   
H21  0.000000e+00    -2.118695e+00     0.000000e+00    -7.374472e-01     0.000000e+00     0.000000e+00   
H21  0.000000e+00    -7.932466e+00     0.000000e+00    -4.843937e-01     0.000000e+00     0.000000e+00   
H21  0.000000e+00    -1.735008e+00     0.000000e+00    -3.158513e-01     0.000000e+00     0.000000e+00   
H21  0.000000e+00    -1.810465e+00     0.000000e+00    -1.836314e-02     0.000000e+00     0.000000e+00   
H21  0.000000e+00    -2.005653e+00     0.000000e+00     1.839269e-01     0.000000e+00     0.000000e+00   
H21  0.000000e+00    -1.821364e+00     0.000000e+00     6.846082e-01     0.000000e+00     0.000000e+00   
H21  0.000000e+00    -1.803450e+00     0.000000e+00     6.434990e-01     0.000000e+00     0.000000e+00   
H21  0.000000e+00    -2.082189e+00     0.000000e+00     6.720739e-01     0.000000e+00     0.000000e+00   
H21  0.000000e+00    -1.958189e+00     0.000000e+00     6.588060e-01     0.000000e+00     0.000000e+00   
H21  0.000000e+00    -1.590594e+00     0.000000e+00     5.751431e-01     0.000000e+00     0.000000e+00   
H21  0.000000e+00    -1.550269e+00     0.000000e+00     5.375123e-01     0.000000e+00     0.000000e+00   
H21  0.000000e+00    -1.870980e+00     0.000000e+00     5.116625e-01     0.000000e+00     0.000000e+00   
H21  0.000000e+00    -8.490666e+00     0.000000e+00     5.875685e-01     0.000000e+00     0.000000e+00   
H21  0.000000e+00    -2.392392e+00     0.000000e+00     1.317593e-01     0.000000e+00     0.000000e+00   
H21  0.000000e+00    -2.635050e+00     0.000000e+00     2.810535e-01     0.000000e+00     0.000000e+00   
H21  0.000000e+00    -2.358287e+00     0.000000e+00     7.131076e-02     0.000000e+00     0.000000e+00   
H21  0.000000e+00    -2.465928e+00     0.000000e+00    -1.594318e-01     0.000000e+00     0.000000e+00   
H21  0.000000e+00    -2.526064e+00     0.000000e+00    -2.575771e-01     0.000000e+00     0.000000e+00   
H21  0.000000e+00    -8.619164e+00     0.000000e+00     4.399850e-02     0.000000e+00     0.000000e+00   
H21  0.000000e+00    -2.720785e+00     0.000000e+00     2.650725e-01     0.000000e+00     0.000000e+00   
H21  0.000000e+00    -2.349266e+00     0.000000e+00     3.859442e-01     0.000000e+00     0.000000e+00   
H21  0.000000e+00     3.883255e+00     0.000000e+00     9.619941e-02     0.000000e+00     0.000000e+00   
H21  0.000000e+00     3.600202e+00     0.000000e+00     3.732515e-01     0.000000e+00     0.000000e+00   
H21  0.000000e+00     3.524519e+00     0.000000e+00     7.101826e-01     0.000000e+00     0.000000e+00   
H21  0.000000e+00    -2.915672e+00     0.000000e+00     4.957109e-01     0.000000e+00     0.000000e+00   
H21  0.000000e+00     3.891025e+00     0.000000e+00     6.396967e-01     0.000000e+00     0.000000e+00   
H21  0.000000e+00     3.443323e+00     0.000000e+00     7.609351e-01     0.000000e+00     0.000000e+00   
H21  0.000000e+00     3.774853e+00     0.000000e+00     8.049036e-01     0.000000e+00     0.000000e+00   
H21  0.000000e+00     3.765918e+00     0.000000e+00     8.162242e-01     0.000000e+00     0.000000e+00   
H21  0.000000e+00     3.681073e+00     0.000000e+00     7.060273e-01     0.000000e+00     0.000000e+00   
H21  0.000000e+00     3.962741e+00     0.000000e+00     6.868595e-01     0.000000e+00     0.000000e+00   
H21  0.000000e+00     3.789119e+00     0.000000e+00     5.734134e-01     0.000000e+00     0.000000e+00   
H21  0.000000e+00     3.748840e+00     0.000000e+00     4.578637e-01     0.000000e+00     0.000000e+00   
H21  0.000000e+00     3.575532e+00     0.000000e+00     3.382228e-01     0.000000e+00     0.000000e+00   
H21  0.000000e+00     3.296095e+00     0.000000e+00     2.559138e-01     0.000000e+00     0.000000e+00   
H21  0.000000e+00     3.334157e+00     0.000000e+00     2.506715e-01     0.000000e+00     0.000000e+00   
H21  0.000000e+00     3.654489e+00     0.000000e+00     6.001571e-01     0.000000e+00     0.000000e+00   
H21  0.000000e+00     3.761544e+00     0.000000e+00     7.390625e-01     0.000000e+00     0.000000e+00   
H21  0.000000e+00     3.619565e+00     0.000000e+00     8.192103e-01     0.000000e+00     0.000000e+00   
H21  0.000000e+00     3.240499e+00     0.000000e+00     6.437222e-01     0.000000e+00     0.000000e+00   
H21  0.000000e+00     3.486458e+00     0.000000e+00     7.891181e-01     0.000000e+00     0.000000e+00   
H21  0.000000e+00     3.641416e+00     0.000000e+00     6.808998e-01     0.000000e+00     0.000000e+00   
H21  0.000000e+00     3.479661e+00     0.000000e+00     5.959284e-01     0.000000e+00     0.000000e+00   
H21  0.000000e+00     3.491547e+00     0.000000e+00     3.226149e-01     0.000000e+00     0.000000e+00   
H21  0.000000e+00     3.618946e+00     0.000000e+00     1.768519e-01     0.000000e+00     0.000000e+00   
H21  0.000000e+00     3.486001e+00     0.000000e+00     1.640233e-01     0.000000e+00     0.000000e+00   
H21  0.000000e+00     3.439076e+00     0.000000e+00     2.097652e-01     0.000000e+00     0.000000e+00   
H21  0.000000e+00     3.394011e+00     0.000000e+00     9.857667e-02     0.000000e+00     0.000000e+00   
H21  0.000000e+00     3.302093e+00     0.000000e+00     2.500530e-01     0.000000e+00     0.000000e+00   
H21  0.000000e+00     3.150162e+00     0.000000e+00     4.056856e-01     0.000000e+00     0.000000e+00   
H21  0.000000e+00     3.105012e+00     0.000000e+00     7.072851e-01     0.000000e+00     0.000000e+00   
H21  0.000000e+00     2.724646e+00     0.000000e+00     7.583551e-01     0.000000e+00     0.000000e+00   
H21  0.000000e+00     3.272589e+00     0.000000e+00     8.000631e-01     0.000000e+00     0.000000e+00   
H21  0.000000e+00     3.493274e+00     0.000000e+00     8.588485e-01     0.000000e+00     0.000000e+00   
H21  0.000000e+00     2.776844e+00     0.000000e+00     9.516673e-01     0.000000e+00     0.000000e+00   
H21  0.000000e+00     3.001306e+00     0.000000e+00     8.616661e-01     0.000000e+00     0.000000e+00   
H21  0.000000e+00     2.670515e+00     0.000000e+00     6.938575e-01     0.000000e+00     0.000000e+00   
H21  0.000000e+00     3.280978e+00     0.000000e+00     8.438769e-01     0.000000e+00     0.000000e+00   
H21  0.000000e+00     4.005668e+00     0.000000e+00     7.614487e-01     0.000000e+00     0.000000e+00   
H21  0.000000e+00     4.057489e+00     0.000000e+00     6.308297e-01     0.000000e+00     0.000000e+00   
H21  0.000000e+00     3.772526e+00     0.000000e+00     6.781767e-01     0.000000e+00     0.000000e+00   
H21  0.000000e+00     3.681746e+00     0.000000e+00     7.282584e-01     0.000000e+00     0.000000e+00   
H21  0.000000e+00     3.690045e+00     0.000000e+00     6.897043e-01     0.000000e+00     0.000000e+00   
H21  0.000000e+00     3.234990e+00     0.000000e+00     4.926666e-01     0.000000e+00     0.000000e+00   
H21  0.000000e+00     2.992949e+00     0.000000e+00     3.329999e-01     0.000000e+00     0.000000e+00   
H21  0.000000e+00     2.907906e+00     0.000000e+00     3.268760e-01     0.000000e+00     0.000000e+00   
H21  0.000000e+00     3.023740e+00     0.000000e+00     2.466205e-01     0.000000e+00     0.000000e+00   
H21  0.000000e+00    -3.433570e+00     0.000000e+00     2.545802e-01     0.000000e+00     0.000000e+00   
H21  0.000000e+00    -3.480410e+00     0.000000e+00     4.721011e-01     0.000000e+00     0.000000e+00   
H21  0.000000e+00     3.051702e+00     0.000000e+00     5.433830e-01     0.000000e+00     0.000000e+00   
H21  0.000000e+00     2.924212e+00     0.000000e+00     7.289218e-01     0.000000e+00     0.000000e+00   
