128 
#   xyz format:  [atom type]  x y z (Angstrom) 
H21  0.000000e+00    -2.637679e-01     0.000000e+00    -3.961604e-01     0.000000e+00     0.000000e+00   
H21  0.000000e+00    -1.498205e-01     0.000000e+00    -1.568907e-01     0.000000e+00     0.000000e+00   
H21  0.000000e+00    -4.506180e-01     0.000000e+00    -1.473735e-01     0.000000e+00     0.000000e+00   
H21  0.000000e+00    -3.718561e-01     0.000000e+00    -1.244889e-01     0.000000e+00     0.000000e+00   
H21  0.000000e+00    -3.290627e-01     0.000000e+00    -1.843071e-01     0.000000e+00     0.000000e+00   
H21  0.000000e+00    -3.565139e-01     0.000000e+00    -4.414605e-01     0.000000e+00     0.000000e+00   
H21  0.000000e+00    -1.481189e-01     0.000000e+00    -1.656050e-01     0.000000e+00     0.000000e+00   
H21  0.000000e+00    -2.901256e-01     0.000000e+00    -1.812528e-01     0.000000e+00     0.000000e+00   
H21  0.000000e+00    -9.418117e-02     0.000000e+00    -4.372681e-01     0.000000e+00     0.000000e+00   
H21  0.000000e+00    -7.463989e-02     0.000000e+00    -3.779333e-01     0.000000e+00     0.000000e+00   
H21  0.000000e+00    -9.954577e-02     0.000000e+00    -2.988075e-01     0.000000e+00     0.000000e+00   
H21  0.000000e+00    -2.332013e-01     0.000000e+00    -3.846924e-01     0.000000e+00     0.000000e+00   
H21  0.000000e+00    -4.405385e-01     0.000000e+00    -1.307996e-01     0.000000e+00     0.000000e+00   
H21  0.000000e+00    -4.803186e-01     0.000000e+00    -2.781072e-01     0.000000e+00     0.000000e+00   
H21  0.000000e+00    -4.352430e-01     0.000000e+00    -5.307381e-01     0.000000e+00     0.000000e+00   
H21  0.000000e+00    -6.996782e-01     0.000000e+00    -5.265038e-01     0.000000e+00     0.000000e+00   
H21  0.000000e+00    -1.148581e+00     0.000000e+00    -3.781076e-01     0.000000e+00     0.000000e+00   
H21  0.000000e+00    -1.403312e+00     0.000000e+00    -4.444758e-01     0.000000e+00     0.000000e+00   
H21  0.000000e+00    -9.307176e-01     0.000000e+00    -5.326413e-01     0.000000e+00     0.000000e+00   
H21  0.000000e+00    -1.207836e+00     0.000000e+00    -6.352820e-01     0.000000e+00     0.000000e+00   
H21  0.000000e+00    -1.367267e+00     0.000000e+00    -7.781153e-01     0.000000e+00     0.000000e+00   
H21  0.000000e+00    -1.523177e+00     0.000000e+00    -7.225335e-01     0.000000e+00     0.000000e+00   
H21  0.000000e+00    -1.743806e+00     0.000000e+00    -7.569021e-01     0.000000e+00     0.000000e+00   
H21  0.000000e+00    -1.549426e+00     0.000000e+00    -8.881509e-01     0.000000e+00     0.000000e+00   
H21  0.000000e+00    -1.620851e+00     0.000000e+00    -7.889543e-01     0.000000e+00     0.000000e+00   
H21  0.000000e+00    -1.797100e+00     0.000000e+00    -7.406710e-01     0.000000e+00     0.000000e+00   
H21  0.000000e+00    -1.977489e+00     0.000000e+00    -9.697664e-01     0.000000e+00     0.000000e+00   
H21  0.000000e+00    -1.972709e+00     0.000000e+00    -8.032166e-01     0.000000e+00     0.000000e+00   
H21  0.000000e+00    -1.970377e+00     0.000000e+00    -7.172035e-01     0.000000e+00     0.000000e+00   
H21  0.000000e+00    -1.490033e+00     0.000000e+00    -8.484266e-01     0.000000e+00     0.000000e+00   
H21  0.000000e+00    -1.645308e+00     0.000000e+00    -9.404801e-01     0.000000e+00     0.000000e+00   
H21  0.000000e+00    -2.318394e+00     0.000000e+00    -9.497684e-01     0.000000e+00     0.000000e+00   
H21  0.000000e+00    -2.419222e+00     0.000000e+00    -9.446449e-01     0.000000e+00     0.000000e+00   
H21  0.000000e+00    -3.029603e+00     0.000000e+00    -8.840758e-01     0.000000e+00     0.000000e+00   
H21  0.000000e+00    -3.120696e+00     0.000000e+00    -8.465111e-01     0.000000e+00     0.000000e+00   
H21  0.000000e+00    -2.940556e+00     0.000000e+00    -8.979184e-01     0.000000e+00     0.000000e+00   
H21  0.000000e+00    -2.859807e+00     0.000000e+00    -8.578825e-01     0.000000e+00     0.000000e+00   
H21  0.000000e+00    -3.042317e+00     0.000000e+00    -8.590415e-01     0.000000e+00     0.000000e+00   
H21  0.000000e+00    -1.991482e+00     0.000000e+00    -9.411956e-01     0.000000e+00     0.000000e+00   
H21  0.000000e+00    -1.953674e+00     0.000000e+00    -9.228945e-01     0.000000e+00     0.000000e+00   
H21  0.000000e+00    -1.738943e+00     0.000000e+00    -8.690861e-01     0.000000e+00     0.000000e+00   
H21  0.000000e+00    -2.071517e+00     0.000000e+00    -8.552149e-01     0.000000e+00     0.000000e+00   
H21  0.000000e+00    -2.463014e+00     0.000000e+00    -8.062293e-01     0.000000e+00     0.000000e+00   
H21  0.000000e+00    -2.966066e+00     0.000000e+00    -6.454355e-01     0.000000e+00     0.000000e+00   
H21  0.000000e+00    -2.327206e+00     0.000000e+00    -7.424449e-01     0.000000e+00     0.000000e+00   
H21  0.000000e+00    -2.168749e+00     0.000000e+00    -7.857430e-01     0.000000e+00     0.000000e+00   
H21  0.000000e+00    -2.211310e+00     0.000000e+00    -8.352155e-01     0.000000e+00     0.000000e+00   
H21  0.000000e+00    -2.442668e+00     0.000000e+00    -8.693811e-01     0.000000e+00     0.000000e+00   
H21  0.000000e+00    -2.138589e+00     0.000000e+00    -9.776306e-01     0.000000e+00     0.000000e+00   
H21  0.000000e+00    -4.200539e+00     0.000000e+00    -9.985487e-01     0.000000e+00     0.000000e+00   
H21  0.000000e+00    -3.984660e+00     0.000000e+00    -9.632096e-01     0.000000e+00     0.000000e+00   
H21  0.000000e+00    -4.244370e+00     0.000000e+00    -9.135729e-01     0.000000e+00     0.000000e+00   
H21  0.000000e+00     2.804379e+00     0.000000e+00    -9.596221e-01     0.000000e+00     0.000000e+00   
H21  0.000000e+00    -3.638245e+00     0.000000e+00    -9.656114e-01     0.000000e+00     0.000000e+00   
H21  0.000000e+00    -1.899654e+00     0.000000e+00    -9.959603e-01     0.000000e+00     0.000000e+00   
H21  0.000000e+00    -2.595905e+00     0.000000e+00    -9.822023e-01     0.000000e+00     0.000000e+00   
H21  0.000000e+00    -2.973844e+00     0.000000e+00    -9.024066e-01     0.000000e+00     0.000000e+00   
H21  0.000000e+00    -2.178850e+00     0.000000e+00    -9.244246e-01     0.000000e+00     0.000000e+00   
H21  0.000000e+00    -7.579213e+00     0.000000e+00    -8.646315e-01     0.000000e+00     0.000000e+00   
H21  0.000000e+00    -1.576436e+00     0.000000e+00    -9.144113e-01     0.000000e+00     0.000000e+00   
H21  0.000000e+00    -1.145722e+00     0.000000e+00    -9.455078e-01     0.000000e+00     0.000000e+00   
H21  0.000000e+00    -1.577399e+00     0.000000e+00    -9.254476e-01     0.000000e+00     0.000000e+00   
H21  0.000000e+00    -4.876824e-01     0.000000e+00    -9.391320e-01     0.000000e+00     0.000000e+00   
H21  0.000000e+00     3.494983e-01     0.000000e+00    -8.908265e-01     0.000000e+00     0.000000e+00   
H21  0.000000e+00    -8.018052e-02     0.000000e+00    -9.241357e-01     0.000000e+00     0.000000e+00   
H21  0.000000e+00    -3.560771e-01     0.000000e+00    -9.629967e-01     0.000000e+00     0.000000e+00   
H21  0.000000e+00    -7.513974e-03     0.000000e+00    -9.485947e-01     0.000000e+00     0.000000e+00   
H21  0.000000e+00    -1.966050e+00     0.000000e+00    -9.836295e-01     0.000000e+00     0.000000e+00   
H21  0.000000e+00    -1.037337e+00     0.000000e+00    -9.675983e-01     0.000000e+00     0.000000e+00   
H21  0.000000e+00    -4.716261e+00     0.000000e+00    -9.985809e-01     0.000000e+00     0.000000e+00   
H21  0.000000e+00    -2.446592e+00     0.000000e+00    -9.981200e-01     0.000000e+00     0.000000e+00   
H21  0.000000e+00    -1.480214e+00     0.000000e+00    -9.969616e-01     0.000000e+00     0.000000e+00   
H21  0.000000e+00    -2.658264e+00     0.000000e+00    -8.025536e-01     0.000000e+00     0.000000e+00   
H21  0.000000e+00    -2.270660e+00     0.000000e+00    -9.570555e-01     0.000000e+00     0.000000e+00   
H21  0.000000e+00     1.581429e+00     0.000000e+00    -9.874005e-01     0.000000e+00     0.000000e+00   
H21  0.000000e+00     1.184979e+00     0.000000e+00    -9.991074e-01     0.000000e+00     0.000000e+00   
H21  0.000000e+00    -1.543102e+00     0.000000e+00    -9.139028e-01     0.000000e+00     0.000000e+00   
H21  0.000000e+00    -1.286957e+00     0.000000e+00    -9.273802e-01     0.000000e+00     0.000000e+00   
H21  0.000000e+00     5.754460e+00     0.000000e+00    -8.850336e-01     0.000000e+00     0.000000e+00   
H21  0.000000e+00     5.776964e+00     0.000000e+00    -9.105735e-01     0.000000e+00     0.000000e+00   
H21  0.000000e+00     6.154632e+00     0.000000e+00    -9.024576e-01     0.000000e+00     0.000000e+00   
H21  0.000000e+00    -3.300416e-01     0.000000e+00    -7.745837e-01     0.000000e+00     0.000000e+00   
H21  0.000000e+00    -5.422707e-01     0.000000e+00    -7.793011e-01     0.000000e+00     0.000000e+00   
H21  0.000000e+00    -3.643062e-01     0.000000e+00    -6.898469e-01     0.000000e+00     0.000000e+00   
H21  0.000000e+00    -4.417756e-01     0.000000e+00    -4.476941e-01     0.000000e+00     0.000000e+00   
H21  0.000000e+00    -3.051596e-01     0.000000e+00    -5.075573e-01     0.000000e+00     0.000000e+00   
H21  0.000000e+00    -2.843315e-01     0.000000e+00    -2.747096e-01     0.000000e+00     0.000000e+00   
H21  0.000000e+00    -2.323653e-01     0.000000e+00    -3.103564e-01     0.000000e+00     0.000000e+00   
H21  0.000000e+00    -6.341979e-02     0.000000e+00    -4.491574e-01     0.000000e+00     0.000000e+00   
H21  0.000000e+00    -5.414958e-02     0.000000e+00     4.543872e-02     0.000000e+00     0.000000e+00   
H21  0.000000e+00     8.289526e-02     0.000000e+00     2.505958e-02     0.000000e+00     0.000000e+00   
H21  0.000000e+00    -5.104724e-02     0.000000e+00     1.949321e-01     0.000000e+00     0.000000e+00   
H21  0.000000e+00     3.710247e-01     0.000000e+00     2.519722e-01     0.000000e+00     0.000000e+00   
H21  0.000000e+00     3.388368e-01     0.000000e+00     3.406378e-01     0.000000e+00     0.000000e+00   
H21  0.000000e+00     6.224485e-01     0.000000e+00     4.564436e-02     0.000000e+00     0.000000e+00   
H21  0.000000e+00     4.875971e-01     0.000000e+00     2.191096e-01     0.000000e+00     0.000000e+00   
H21  0.000000e+00     7.071893e-01     0.000000e+00     2.052240e-01     0.000000e+00     0.000000e+00   
H21  0.000000e+00     8.703994e-01     0.000000e+00     4.203339e-01     0.000000e+00     0.000000e+00   
H21  0.000000e+00     6.437717e-01     0.000000e+00     2.976602e-01     0.000000e+00     0.000000e+00   
H21  0.000000e+00     7.961501e-01     0.000000e+00     1.119343e-01     0.000000e+00     0.000000e+00   
H21  0.000000e+00     1.022240e+00     0.000000e+00     3.467289e-02     0.000000e+00     0.000000e+00   
H21  0.000000e+00     7.376618e-01     0.000000e+00     1.564912e-01     0.000000e+00     0.000000e+00   
H21  0.000000e+00     9.629475e-01     0.000000e+00     3.337694e-01     0.000000e+00     0.000000e+00   
H21  0.000000e+00     8.948136e-01     0.000000e+00     3.135290e-01     0.000000e+00     0.000000e+00   
H21  0.000000e+00     6.792489e-01     0.000000e+00     4.351987e-01     0.000000e+00     0.000000e+00   
H21  0.000000e+00     7.069633e-01     0.000000e+00     2.940686e-01     0.000000e+00     0.000000e+00   
H21  0.000000e+00     5.887524e-01     0.000000e+00     3.567663e-01     0.000000e+00     0.000000e+00   
H21  0.000000e+00     7.953294e-01     0.000000e+00     5.299005e-01     0.000000e+00     0.000000e+00   
H21  0.000000e+00     9.484553e-01     0.000000e+00     5.913860e-01     0.000000e+00     0.000000e+00   
H21  0.000000e+00     1.108487e+00     0.000000e+00     6.999631e-01     0.000000e+00     0.000000e+00   
H21  0.000000e+00     7.246461e-01     0.000000e+00     9.574518e-01     0.000000e+00     0.000000e+00   
H21  0.000000e+00     2.920771e+00     0.000000e+00     9.968824e-01     0.000000e+00     0.000000e+00   
H21  0.000000e+00     1.829916e+00     0.000000e+00     9.269537e-01     0.000000e+00     0.000000e+00   
H21  0.000000e+00     2.035161e+00     0.000000e+00     8.911179e-01     0.000000e+00     0.000000e+00   
H21  0.000000e+00     2.163574e+00     0.000000e+00     9.576434e-01     0.000000e+00     0.000000e+00   
H21  0.000000e+00     3.433981e+00     0.000000e+00     7.831319e-01     0.000000e+00     0.000000e+00   
H21  0.000000e+00     3.824816e+00     0.000000e+00     9.949522e-01     0.000000e+00     0.000000e+00   
H21  0.000000e+00     2.485978e+00     0.000000e+00     9.883426e-01     0.000000e+00     0.000000e+00   
H21  0.000000e+00     2.121903e+00     0.000000e+00     9.793475e-01     0.000000e+00     0.000000e+00   
H21  0.000000e+00     2.182711e+00     0.000000e+00     7.217783e-01     0.000000e+00     0.000000e+00   
H21  0.000000e+00     2.149327e+00     0.000000e+00     9.276695e-01     0.000000e+00     0.000000e+00   
H21  0.000000e+00     2.930689e+00     0.000000e+00     9.470829e-01     0.000000e+00     0.000000e+00   
H21  0.000000e+00     3.874564e+00     0.000000e+00     9.995695e-01     0.000000e+00     0.000000e+00   
H21  0.000000e+00     1.538119e+00     0.000000e+00     9.476972e-01     0.000000e+00     0.000000e+00   
H21  0.000000e+00    -3.052220e+00     0.000000e+00     9.431869e-01     0.000000e+00     0.000000e+00   
H21  0.000000e+00    -1.630105e+00     0.000000e+00     8.912747e-01     0.000000e+00     0.000000e+00   
H21  0.000000e+00     4.508044e+00     0.000000e+00     9.336493e-01     0.000000e+00     0.000000e+00   
H21  0.000000e+00     3.742228e+00     0.000000e+00     8.781022e-01     0.000000e+00     0.000000e+00   
