128 
#   xyz format:  [atom type]  x y z (Angstrom) 
H21  0.000000e+00     3.801027e+00     0.000000e+00    -8.816894e-01     0.000000e+00     0.000000e+00   
H21  0.000000e+00     4.429823e+00     0.000000e+00    -9.246293e-01     0.000000e+00     0.000000e+00   
H21  0.000000e+00     4.269441e+00     0.000000e+00    -9.173116e-01     0.000000e+00     0.000000e+00   
H21  0.000000e+00     4.686665e+00     0.000000e+00    -9.635942e-01     0.000000e+00     0.000000e+00   
H21  0.000000e+00     5.755129e+00     0.000000e+00    -9.371006e-01     0.000000e+00     0.000000e+00   
H21  0.000000e+00    -3.287632e+00     0.000000e+00    -9.824220e-01     0.000000e+00     0.000000e+00   
H21  0.000000e+00    -2.673970e+00     0.000000e+00    -9.932372e-01     0.000000e+00     0.000000e+00   
H21  0.000000e+00    -3.201786e+00     0.000000e+00    -9.336556e-01     0.000000e+00     0.000000e+00   
H21  0.000000e+00     3.280866e+00     0.000000e+00    -9.917373e-01     0.000000e+00     0.000000e+00   
H21  0.000000e+00     6.351573e+00     0.000000e+00    -9.781465e-01     0.000000e+00     0.000000e+00   
H21  0.000000e+00     2.001186e+00     0.000000e+00    -9.981945e-01     0.000000e+00     0.000000e+00   
H21  0.000000e+00     3.090482e+00     0.000000e+00    -9.563670e-01     0.000000e+00     0.000000e+00   
H21  0.000000e+00     2.610330e+00     0.000000e+00    -7.649478e-01     0.000000e+00     0.000000e+00   
H21  0.000000e+00    -3.113578e+00     0.000000e+00    -6.268168e-01     0.000000e+00     0.000000e+00   
H21  0.000000e+00    -3.122027e+00     0.000000e+00    -4.444530e-01     0.000000e+00     0.000000e+00   
H21  0.000000e+00    -3.003602e+00     0.000000e+00     3.725084e-02     0.000000e+00     0.000000e+00   
H21  0.000000e+00    -2.685134e+00     0.000000e+00     3.820801e-01     0.000000e+00     0.000000e+00   
H21  0.000000e+00    -2.591596e+00     0.000000e+00     6.242410e-01     0.000000e+00     0.000000e+00   
H21  0.000000e+00    -2.822594e+00     0.000000e+00     5.427812e-01     0.000000e+00     0.000000e+00   
H21  0.000000e+00    -3.343616e+00     0.000000e+00     4.484260e-01     0.000000e+00     0.000000e+00   
H21  0.000000e+00    -3.374669e+00     0.000000e+00     3.975476e-01     0.000000e+00     0.000000e+00   
H21  0.000000e+00    -3.587421e+00     0.000000e+00     2.019568e-01     0.000000e+00     0.000000e+00   
H21  0.000000e+00    -3.570202e+00     0.000000e+00     5.428238e-02     0.000000e+00     0.000000e+00   
H21  0.000000e+00    -3.439063e+00     0.000000e+00     2.843025e-01     0.000000e+00     0.000000e+00   
H21  0.000000e+00    -3.219340e+00     0.000000e+00     5.773820e-01     0.000000e+00     0.000000e+00   
H21  0.000000e+00    -3.318483e+00     0.000000e+00     3.870435e-01     0.000000e+00     0.000000e+00   
H21  0.000000e+00    -3.004609e+00     0.000000e+00     4.784108e-01     0.000000e+00     0.000000e+00   
H21  0.000000e+00    -2.693340e+00     0.000000e+00     5.863301e-01     0.000000e+00     0.000000e+00   
H21  0.000000e+00    -2.938124e+00     0.000000e+00     2.490304e-01     0.000000e+00     0.000000e+00   
H21  0.000000e+00    -3.106211e+00     0.000000e+00     4.151704e-02     0.000000e+00     0.000000e+00   
H21  0.000000e+00    -2.751662e+00     0.000000e+00    -5.950702e-02     0.000000e+00     0.000000e+00   
H21  0.000000e+00    -2.558580e+00     0.000000e+00     2.368520e-01     0.000000e+00     0.000000e+00   
H21  0.000000e+00    -2.740148e+00     0.000000e+00     3.135676e-01     0.000000e+00     0.000000e+00   
H21  0.000000e+00    -2.788744e+00     0.000000e+00     3.711387e-01     0.000000e+00     0.000000e+00   
H21  0.000000e+00    -2.523668e+00     0.000000e+00     1.360473e-01     0.000000e+00     0.000000e+00   
H21  0.000000e+00    -2.417434e+00     0.000000e+00     4.924672e-01     0.000000e+00     0.000000e+00   
H21  0.000000e+00    -2.296185e+00     0.000000e+00     3.812208e-01     0.000000e+00     0.000000e+00   
H21  0.000000e+00    -2.417693e+00     0.000000e+00     4.452101e-01     0.000000e+00     0.000000e+00   
H21  0.000000e+00    -2.636859e+00     0.000000e+00     1.380332e-01     0.000000e+00     0.000000e+00   
H21  0.000000e+00    -9.045699e+00     0.000000e+00     7.272221e-02     0.000000e+00     0.000000e+00   
H21  0.000000e+00    -2.850571e+00     0.000000e+00    -4.357621e-01     0.000000e+00     0.000000e+00   
H21  0.000000e+00    -2.587374e+00     0.000000e+00    -4.097657e-01     0.000000e+00     0.000000e+00   
H21  0.000000e+00    -2.199415e+00     0.000000e+00    -3.600109e-01     0.000000e+00     0.000000e+00   
H21  0.000000e+00    -1.780380e+00     0.000000e+00    -2.615808e-01     0.000000e+00     0.000000e+00   
H21  0.000000e+00    -1.624266e+00     0.000000e+00    -5.216992e-01     0.000000e+00     0.000000e+00   
H21  0.000000e+00    -1.605493e+00     0.000000e+00    -7.145094e-01     0.000000e+00     0.000000e+00   
H21  0.000000e+00    -1.769347e+00     0.000000e+00    -5.643646e-01     0.000000e+00     0.000000e+00   
H21  0.000000e+00    -1.531581e+00     0.000000e+00    -6.345728e-01     0.000000e+00     0.000000e+00   
H21  0.000000e+00    -1.429303e+00     0.000000e+00    -7.380819e-01     0.000000e+00     0.000000e+00   
H21  0.000000e+00    -1.857910e+00     0.000000e+00    -9.171248e-01     0.000000e+00     0.000000e+00   
H21  0.000000e+00     3.977299e+00     0.000000e+00    -9.493532e-01     0.000000e+00     0.000000e+00   
H21  0.000000e+00    -1.079191e+00     0.000000e+00    -9.469942e-01     0.000000e+00     0.000000e+00   
H21  0.000000e+00     4.929243e+00     0.000000e+00    -8.684469e-01     0.000000e+00     0.000000e+00   
H21  0.000000e+00    -1.488602e+00     0.000000e+00    -8.731854e-01     0.000000e+00     0.000000e+00   
H21  0.000000e+00    -1.963819e+00     0.000000e+00    -8.647315e-01     0.000000e+00     0.000000e+00   
H21  0.000000e+00    -2.022042e+00     0.000000e+00    -9.691307e-01     0.000000e+00     0.000000e+00   
H21  0.000000e+00    -3.517207e+00     0.000000e+00    -9.281721e-01     0.000000e+00     0.000000e+00   
H21  0.000000e+00    -2.989394e+00     0.000000e+00    -8.660065e-01     0.000000e+00     0.000000e+00   
H21  0.000000e+00    -8.735060e+00     0.000000e+00    -9.275263e-01     0.000000e+00     0.000000e+00   
H21  0.000000e+00    -2.243467e+00     0.000000e+00    -7.095873e-01     0.000000e+00     0.000000e+00   
H21  0.000000e+00    -2.208431e+00     0.000000e+00    -6.623209e-01     0.000000e+00     0.000000e+00   
H21  0.000000e+00    -2.028878e+00     0.000000e+00    -7.785348e-01     0.000000e+00     0.000000e+00   
H21  0.000000e+00    -2.272522e+00     0.000000e+00    -8.515586e-01     0.000000e+00     0.000000e+00   
H21  0.000000e+00    -2.053261e+00     0.000000e+00    -7.221799e-01     0.000000e+00     0.000000e+00   
H21  0.000000e+00    -1.277235e+00     0.000000e+00    -3.583692e-01     0.000000e+00     0.000000e+00   
H21  0.000000e+00    -1.328898e+00     0.000000e+00    -4.512040e-01     0.000000e+00     0.000000e+00   
H21  0.000000e+00    -1.200538e+00     0.000000e+00    -1.695598e-01     0.000000e+00     0.000000e+00   
H21  0.000000e+00    -1.608997e+00     0.000000e+00    -1.183226e-01     0.000000e+00     0.000000e+00   
H21  0.000000e+00    -1.461334e+00     0.000000e+00    -3.924247e-01     0.000000e+00     0.000000e+00   
H21  0.000000e+00    -7.588366e+00     0.000000e+00    -4.042768e-01     0.000000e+00     0.000000e+00   
H21  0.000000e+00    -1.249898e+00     0.000000e+00    -6.158841e-01     0.000000e+00     0.000000e+00   
H21  0.000000e+00    -1.021417e+00     0.000000e+00    -6.294280e-01     0.000000e+00     0.000000e+00   
H21  0.000000e+00    -1.309206e+00     0.000000e+00    -5.018823e-01     0.000000e+00     0.000000e+00   
H21  0.000000e+00    -8.966513e-01     0.000000e+00    -4.325207e-01     0.000000e+00     0.000000e+00   
H21  0.000000e+00    -7.428393e-01     0.000000e+00    -6.186078e-01     0.000000e+00     0.000000e+00   
H21  0.000000e+00    -7.452726e+00     0.000000e+00    -7.205423e-01     0.000000e+00     0.000000e+00   
H21  0.000000e+00    -6.626455e-01     0.000000e+00    -7.930362e-01     0.000000e+00     0.000000e+00   
H21  0.000000e+00    -3.182142e-01     0.000000e+00    -6.515892e-01     0.000000e+00     0.000000e+00   
H21  0.000000e+00     5.768915e+00     0.000000e+00    -5.115558e-01     0.000000e+00     0.000000e+00   
H21  0.000000e+00     5.887087e+00     0.000000e+00    -4.666328e-01     0.000000e+00     0.000000e+00   
H21  0.000000e+00     5.896955e+00     0.000000e+00    -1.355043e-01     0.000000e+00     0.000000e+00   
H21  0.000000e+00    -2.841336e-01     0.000000e+00    -1.024841e-01     0.000000e+00     0.000000e+00   
H21  0.000000e+00     5.403146e+00     0.000000e+00    -4.182497e-01     0.000000e+00     0.000000e+00   
H21  0.000000e+00     5.009227e+00     0.000000e+00    -3.933341e-01     0.000000e+00     0.000000e+00   
H21  0.000000e+00     5.142925e+00     0.000000e+00    -2.287369e-01     0.000000e+00     0.000000e+00   
H21  0.000000e+00     5.306970e+00     0.000000e+00     7.803742e-02     0.000000e+00     0.000000e+00   
H21  0.000000e+00     5.359517e+00     0.000000e+00    -1.197887e-01     0.000000e+00     0.000000e+00   
H21  0.000000e+00     4.998049e+00     0.000000e+00    -3.839697e-01     0.000000e+00     0.000000e+00   
H21  0.000000e+00     4.915755e+00     0.000000e+00    -1.715352e-01     0.000000e+00     0.000000e+00   
H21  0.000000e+00     4.849049e+00     0.000000e+00    -1.454363e-02     0.000000e+00     0.000000e+00   
H21  0.000000e+00     4.746274e+00     0.000000e+00     1.715560e-01     0.000000e+00     0.000000e+00   
H21  0.000000e+00     4.504785e+00     0.000000e+00    -1.360731e-01     0.000000e+00     0.000000e+00   
H21  0.000000e+00     4.243718e+00     0.000000e+00     2.039120e-02     0.000000e+00     0.000000e+00   
H21  0.000000e+00     4.161113e+00     0.000000e+00    -1.619855e-01     0.000000e+00     0.000000e+00   
H21  0.000000e+00     4.109339e+00     0.000000e+00     1.449670e-01     0.000000e+00     0.000000e+00   
H21  0.000000e+00     3.901051e+00     0.000000e+00     3.099530e-01     0.000000e+00     0.000000e+00   
H21  0.000000e+00     4.058242e+00     0.000000e+00     3.174902e-01     0.000000e+00     0.000000e+00   
H21  0.000000e+00     4.068058e+00     0.000000e+00     4.648305e-01     0.000000e+00     0.000000e+00   
H21  0.000000e+00     3.926603e+00     0.000000e+00     4.945817e-01     0.000000e+00     0.000000e+00   
H21  0.000000e+00     3.797985e+00     0.000000e+00     2.860504e-01     0.000000e+00     0.000000e+00   
H21  0.000000e+00     3.778256e+00     0.000000e+00     3.271010e-01     0.000000e+00     0.000000e+00   
H21  0.000000e+00     3.638978e+00     0.000000e+00     1.268729e-01     0.000000e+00     0.000000e+00   
H21  0.000000e+00     3.691223e+00     0.000000e+00     5.699373e-02     0.000000e+00     0.000000e+00   
H21  0.000000e+00     3.476405e+00     0.000000e+00    -3.444119e-01     0.000000e+00     0.000000e+00   
H21  0.000000e+00     3.208359e+00     0.000000e+00    -8.520591e-03     0.000000e+00     0.000000e+00   
H21  0.000000e+00     2.945399e+00     0.000000e+00     2.607369e-01     0.000000e+00     0.000000e+00   
H21  0.000000e+00     3.418648e+00     0.000000e+00     3.515608e-01     0.000000e+00     0.000000e+00   
H21  0.000000e+00     3.160777e+00     0.000000e+00     3.634375e-01     0.000000e+00     0.000000e+00   
H21  0.000000e+00     2.874550e+00     0.000000e+00     2.214272e-01     0.000000e+00     0.000000e+00   
H21  0.000000e+00     2.900726e+00     0.000000e+00     2.162790e-01     0.000000e+00     0.000000e+00   
H21  0.000000e+00     3.104710e+00     0.000000e+00     5.346829e-01     0.000000e+00     0.000000e+00   
H21  0.000000e+00     3.011188e+00     0.000000e+00     4.785713e-01     0.000000e+00     0.000000e+00   
H21  0.000000e+00     2.726797e+00     0.000000e+00     1.235533e-01     0.000000e+00     0.000000e+00   
H21  0.000000e+00     2.929709e+00     0.000000e+00     3.213239e-01     0.000000e+00     0.000000e+00   
H21  0.000000e+00     3.110585e+00     0.000000e+00     4.326734e-01     0.000000e+00     0.000000e+00   
H21  0.000000e+00     2.933470e+00     0.000000e+00     4.890442e-01     0.000000e+00     0.000000e+00   
H21  0.000000e+00     3.120462e+00     0.000000e+00     1.459476e-01     0.000000e+00     0.000000e+00   
H21  0.000000e+00     3.256923e+00     0.000000e+00     2.834053e-01     0.000000e+00     0.000000e+00   
H21  0.000000e+00     3.305594e+00     0.000000e+00     2.964226e-01     0.000000e+00     0.000000e+00   
H21  0.000000e+00     3.496471e+00     0.000000e+00     3.434615e-02     0.000000e+00     0.000000e+00   
H21  0.000000e+00     3.473952e+00     0.000000e+00     8.624665e-02     0.000000e+00     0.000000e+00   
H21  0.000000e+00     3.653915e+00     0.000000e+00     1.463442e-01     0.000000e+00     0.000000e+00   
H21  0.000000e+00     3.349137e+00     0.000000e+00     5.271320e-02     0.000000e+00     0.000000e+00   
H21  0.000000e+00     2.930259e+00     0.000000e+00     4.266681e-01     0.000000e+00     0.000000e+00   
H21  0.000000e+00    -2.991572e+00     0.000000e+00     7.787384e-02     0.000000e+00     0.000000e+00   
H21  0.000000e+00    -2.886169e+00     0.000000e+00     2.023183e-01     0.000000e+00     0.000000e+00   
H21  0.000000e+00     3.210942e+00     0.000000e+00     2.024197e-01     0.000000e+00     0.000000e+00   
H21  0.000000e+00     3.013604e+00     0.000000e+00     1.738291e-01     0.000000e+00     0.000000e+00   
