128 
#   xyz format:  [atom type]  x y z (Angstrom) 
H21  0.000000e+00     2.662732e+00     0.000000e+00    -7.856791e-01     0.000000e+00     0.000000e+00   
H21  0.000000e+00     2.895458e+00     0.000000e+00    -8.575598e-01     0.000000e+00     0.000000e+00   
H21  0.000000e+00     1.954702e+00     0.000000e+00    -9.188579e-01     0.000000e+00     0.000000e+00   
H21  0.000000e+00     2.130502e+00     0.000000e+00    -6.779665e-01     0.000000e+00     0.000000e+00   
H21  0.000000e+00     1.514189e+00     0.000000e+00    -7.079130e-01     0.000000e+00     0.000000e+00   
H21  0.000000e+00    -4.767015e+00     0.000000e+00    -7.263441e-01     0.000000e+00     0.000000e+00   
H21  0.000000e+00    -5.217441e+00     0.000000e+00    -7.194245e-01     0.000000e+00     0.000000e+00   
H21  0.000000e+00    -5.246453e+00     0.000000e+00    -7.483049e-01     0.000000e+00     0.000000e+00   
H21  0.000000e+00     8.764001e-01     0.000000e+00    -9.532416e-01     0.000000e+00     0.000000e+00   
H21  0.000000e+00     7.306495e+00     0.000000e+00    -9.147957e-01     0.000000e+00     0.000000e+00   
H21  0.000000e+00     1.966484e+00     0.000000e+00    -8.309568e-01     0.000000e+00     0.000000e+00   
H21  0.000000e+00     1.846615e+00     0.000000e+00    -8.314908e-01     0.000000e+00     0.000000e+00   
H21  0.000000e+00     2.108024e+00     0.000000e+00    -8.623549e-01     0.000000e+00     0.000000e+00   
H21  0.000000e+00    -4.081754e+00     0.000000e+00    -8.184421e-01     0.000000e+00     0.000000e+00   
H21  0.000000e+00    -3.948613e+00     0.000000e+00    -6.536853e-01     0.000000e+00     0.000000e+00   
H21  0.000000e+00    -3.799333e+00     0.000000e+00    -2.115974e-01     0.000000e+00     0.000000e+00   
H21  0.000000e+00    -3.993471e+00     0.000000e+00    -5.452105e-01     0.000000e+00     0.000000e+00   
H21  0.000000e+00    -4.299628e+00     0.000000e+00    -5.202078e-01     0.000000e+00     0.000000e+00   
H21  0.000000e+00    -4.204827e+00     0.000000e+00    -3.783002e-01     0.000000e+00     0.000000e+00   
H21  0.000000e+00    -4.363007e+00     0.000000e+00     1.319990e-01     0.000000e+00     0.000000e+00   
H21  0.000000e+00    -4.260234e+00     0.000000e+00     4.543930e-01     0.000000e+00     0.000000e+00   
H21  0.000000e+00    -4.355130e+00     0.000000e+00     3.531285e-01     0.000000e+00     0.000000e+00   
H21  0.000000e+00    -4.181956e+00     0.000000e+00     3.357844e-01     0.000000e+00     0.000000e+00   
H21  0.000000e+00    -4.309170e+00     0.000000e+00    -2.509619e-02     0.000000e+00     0.000000e+00   
H21  0.000000e+00    -3.846464e+00     0.000000e+00    -6.811311e-02     0.000000e+00     0.000000e+00   
H21  0.000000e+00    -3.827316e+00     0.000000e+00     2.311615e-01     0.000000e+00     0.000000e+00   
H21  0.000000e+00    -4.048866e+00     0.000000e+00     2.483861e-01     0.000000e+00     0.000000e+00   
H21  0.000000e+00    -3.912732e+00     0.000000e+00     3.967281e-01     0.000000e+00     0.000000e+00   
H21  0.000000e+00    -3.905945e+00     0.000000e+00     4.249897e-01     0.000000e+00     0.000000e+00   
H21  0.000000e+00    -3.455789e+00     0.000000e+00     4.657967e-01     0.000000e+00     0.000000e+00   
H21  0.000000e+00    -3.377146e+00     0.000000e+00     4.199498e-01     0.000000e+00     0.000000e+00   
H21  0.000000e+00    -3.523844e+00     0.000000e+00     4.616065e-01     0.000000e+00     0.000000e+00   
H21  0.000000e+00    -3.346736e+00     0.000000e+00     5.757809e-01     0.000000e+00     0.000000e+00   
H21  0.000000e+00    -3.540242e+00     0.000000e+00     5.849143e-01     0.000000e+00     0.000000e+00   
H21  0.000000e+00    -3.749057e+00     0.000000e+00     6.410090e-01     0.000000e+00     0.000000e+00   
H21  0.000000e+00    -3.344485e+00     0.000000e+00     8.126295e-01     0.000000e+00     0.000000e+00   
H21  0.000000e+00    -3.396388e+00     0.000000e+00     7.714493e-01     0.000000e+00     0.000000e+00   
H21  0.000000e+00    -3.232919e+00     0.000000e+00     5.195781e-01     0.000000e+00     0.000000e+00   
H21  0.000000e+00    -2.981729e+00     0.000000e+00     4.294877e-01     0.000000e+00     0.000000e+00   
H21  0.000000e+00    -9.659249e+00     0.000000e+00     6.130657e-01     0.000000e+00     0.000000e+00   
H21  0.000000e+00    -3.248054e+00     0.000000e+00     7.666399e-01     0.000000e+00     0.000000e+00   
H21  0.000000e+00    -3.290039e+00     0.000000e+00     6.048477e-01     0.000000e+00     0.000000e+00   
H21  0.000000e+00    -2.893686e+00     0.000000e+00     6.583926e-01     0.000000e+00     0.000000e+00   
H21  0.000000e+00    -2.985271e+00     0.000000e+00     5.947371e-01     0.000000e+00     0.000000e+00   
H21  0.000000e+00    -2.735683e+00     0.000000e+00     8.072080e-01     0.000000e+00     0.000000e+00   
H21  0.000000e+00    -2.909497e+00     0.000000e+00     8.236805e-01     0.000000e+00     0.000000e+00   
H21  0.000000e+00    -2.329904e+00     0.000000e+00     7.230187e-01     0.000000e+00     0.000000e+00   
H21  0.000000e+00    -2.409435e+00     0.000000e+00     4.207170e-01     0.000000e+00     0.000000e+00   
H21  0.000000e+00    -2.345050e+00     0.000000e+00     4.708025e-01     0.000000e+00     0.000000e+00   
H21  0.000000e+00    -2.059274e+00     0.000000e+00     4.376656e-01     0.000000e+00     0.000000e+00   
H21  0.000000e+00     4.359563e+00     0.000000e+00     5.034611e-01     0.000000e+00     0.000000e+00   
H21  0.000000e+00    -1.986420e+00     0.000000e+00     2.179022e-01     0.000000e+00     0.000000e+00   
H21  0.000000e+00     4.608531e+00     0.000000e+00     7.266916e-02     0.000000e+00     0.000000e+00   
H21  0.000000e+00    -1.606825e+00     0.000000e+00    -3.106605e-02     0.000000e+00     0.000000e+00   
H21  0.000000e+00    -1.732191e+00     0.000000e+00    -1.128281e-01     0.000000e+00     0.000000e+00   
H21  0.000000e+00    -1.531986e+00     0.000000e+00    -3.068894e-01     0.000000e+00     0.000000e+00   
H21  0.000000e+00    -1.467467e+00     0.000000e+00    -1.771758e-02     0.000000e+00     0.000000e+00   
H21  0.000000e+00    -1.128206e+00     0.000000e+00    -1.550619e-01     0.000000e+00     0.000000e+00   
H21  0.000000e+00    -7.478514e+00     0.000000e+00     2.151428e-02     0.000000e+00     0.000000e+00   
H21  0.000000e+00    -1.123543e+00     0.000000e+00     6.621081e-01     0.000000e+00     0.000000e+00   
H21  0.000000e+00    -9.598111e-01     0.000000e+00     7.924283e-01     0.000000e+00     0.000000e+00   
H21  0.000000e+00    -6.722498e-01     0.000000e+00     8.294686e-01     0.000000e+00     0.000000e+00   
H21  0.000000e+00    -4.131449e-01     0.000000e+00     8.695069e-01     0.000000e+00     0.000000e+00   
H21  0.000000e+00     2.804768e-01     0.000000e+00     7.767205e-01     0.000000e+00     0.000000e+00   
H21  0.000000e+00    -1.011871e-01     0.000000e+00     7.616899e-01     0.000000e+00     0.000000e+00   
H21  0.000000e+00     4.074220e-01     0.000000e+00     6.335266e-01     0.000000e+00     0.000000e+00   
H21  0.000000e+00     2.697861e-01     0.000000e+00     6.674372e-01     0.000000e+00     0.000000e+00   
H21  0.000000e+00     3.258510e-01     0.000000e+00     6.688533e-01     0.000000e+00     0.000000e+00   
H21  0.000000e+00     5.242944e-01     0.000000e+00     7.791111e-01     0.000000e+00     0.000000e+00   
H21  0.000000e+00    -5.418697e+00     0.000000e+00     8.882105e-01     0.000000e+00     0.000000e+00   
H21  0.000000e+00     1.533074e+00     0.000000e+00     9.278033e-01     0.000000e+00     0.000000e+00   
H21  0.000000e+00     2.870980e-01     0.000000e+00     9.899978e-01     0.000000e+00     0.000000e+00   
H21  0.000000e+00    -7.970875e-01     0.000000e+00     9.052907e-01     0.000000e+00     0.000000e+00   
H21  0.000000e+00     2.937128e-01     0.000000e+00     8.287443e-01     0.000000e+00     0.000000e+00   
H21  0.000000e+00     3.513782e-01     0.000000e+00     7.998845e-01     0.000000e+00     0.000000e+00   
H21  0.000000e+00    -6.302016e+00     0.000000e+00     7.617673e-01     0.000000e+00     0.000000e+00   
H21  0.000000e+00     1.064906e-01     0.000000e+00     6.522888e-01     0.000000e+00     0.000000e+00   
H21  0.000000e+00    -1.825491e-01     0.000000e+00     7.266088e-01     0.000000e+00     0.000000e+00   
H21  0.000000e+00     6.183097e+00     0.000000e+00     5.751755e-01     0.000000e+00     0.000000e+00   
H21  0.000000e+00     6.148387e+00     0.000000e+00     1.738831e-01     0.000000e+00     0.000000e+00   
H21  0.000000e+00     5.805682e+00     0.000000e+00     1.895300e-01     0.000000e+00     0.000000e+00   
H21  0.000000e+00    -8.290300e-01     0.000000e+00     2.479362e-01     0.000000e+00     0.000000e+00   
H21  0.000000e+00     5.464568e+00     0.000000e+00     5.523962e-02     0.000000e+00     0.000000e+00   
H21  0.000000e+00     5.452623e+00     0.000000e+00     3.509667e-01     0.000000e+00     0.000000e+00   
H21  0.000000e+00     5.384882e+00     0.000000e+00     3.958597e-01     0.000000e+00     0.000000e+00   
H21  0.000000e+00     5.518444e+00     0.000000e+00     3.446006e-01     0.000000e+00     0.000000e+00   
H21  0.000000e+00     5.456074e+00     0.000000e+00     4.658046e-01     0.000000e+00     0.000000e+00   
H21  0.000000e+00     5.139782e+00     0.000000e+00     4.256223e-01     0.000000e+00     0.000000e+00   
H21  0.000000e+00     4.800396e+00     0.000000e+00     1.569098e-01     0.000000e+00     0.000000e+00   
H21  0.000000e+00     4.839692e+00     0.000000e+00     2.449266e-01     0.000000e+00     0.000000e+00   
H21  0.000000e+00     4.941511e+00     0.000000e+00    -4.596669e-02     0.000000e+00     0.000000e+00   
H21  0.000000e+00     5.207207e+00     0.000000e+00    -5.031788e-02     0.000000e+00     0.000000e+00   
H21  0.000000e+00     5.108989e+00     0.000000e+00     1.355302e-01     0.000000e+00     0.000000e+00   
H21  0.000000e+00     4.901809e+00     0.000000e+00     3.995894e-01     0.000000e+00     0.000000e+00   
H21  0.000000e+00     4.734139e+00     0.000000e+00     4.821754e-02     0.000000e+00     0.000000e+00   
H21  0.000000e+00     4.833076e+00     0.000000e+00    -7.600494e-02     0.000000e+00     0.000000e+00   
H21  0.000000e+00     4.882311e+00     0.000000e+00    -1.483921e-01     0.000000e+00     0.000000e+00   
H21  0.000000e+00     4.959181e+00     0.000000e+00     4.296194e-02     0.000000e+00     0.000000e+00   
H21  0.000000e+00     4.760252e+00     0.000000e+00     3.662242e-02     0.000000e+00     0.000000e+00   
H21  0.000000e+00     4.790161e+00     0.000000e+00     3.088453e-02     0.000000e+00     0.000000e+00   
H21  0.000000e+00     4.884155e+00     0.000000e+00    -4.593316e-02     0.000000e+00     0.000000e+00   
H21  0.000000e+00     4.870653e+00     0.000000e+00     3.084533e-02     0.000000e+00     0.000000e+00   
H21  0.000000e+00     4.670051e+00     0.000000e+00     6.997740e-02     0.000000e+00     0.000000e+00   
H21  0.000000e+00     4.640727e+00     0.000000e+00    -4.189124e-02     0.000000e+00     0.000000e+00   
H21  0.000000e+00     4.549723e+00     0.000000e+00     1.681096e-02     0.000000e+00     0.000000e+00   
H21  0.000000e+00     4.222937e+00     0.000000e+00    -3.159640e-01     0.000000e+00     0.000000e+00   
H21  0.000000e+00     4.409329e+00     0.000000e+00    -2.949177e-01     0.000000e+00     0.000000e+00   
H21  0.000000e+00     4.245053e+00     0.000000e+00    -2.574852e-01     0.000000e+00     0.000000e+00   
H21  0.000000e+00     4.213127e+00     0.000000e+00    -2.094834e-01     0.000000e+00     0.000000e+00   
H21  0.000000e+00     3.843500e+00     0.000000e+00    -3.354670e-01     0.000000e+00     0.000000e+00   
H21  0.000000e+00     3.746623e+00     0.000000e+00    -2.848523e-01     0.000000e+00     0.000000e+00   
H21  0.000000e+00     3.783660e+00     0.000000e+00    -3.693622e-01     0.000000e+00     0.000000e+00   
H21  0.000000e+00     4.080245e+00     0.000000e+00    -5.632028e-01     0.000000e+00     0.000000e+00   
H21  0.000000e+00     4.154200e+00     0.000000e+00    -5.305689e-01     0.000000e+00     0.000000e+00   
H21  0.000000e+00     4.029508e+00     0.000000e+00    -2.872779e-01     0.000000e+00     0.000000e+00   
H21  0.000000e+00     4.114165e+00     0.000000e+00    -3.208668e-02     0.000000e+00     0.000000e+00   
H21  0.000000e+00     4.182142e+00     0.000000e+00     2.395551e-01     0.000000e+00     0.000000e+00   
H21  0.000000e+00     4.314515e+00     0.000000e+00     2.069761e-01     0.000000e+00     0.000000e+00   
H21  0.000000e+00     3.785609e+00     0.000000e+00     3.919052e-01     0.000000e+00     0.000000e+00   
H21  0.000000e+00     4.149945e+00     0.000000e+00     6.908105e-01     0.000000e+00     0.000000e+00   
H21  0.000000e+00     4.134918e+00     0.000000e+00     5.017029e-01     0.000000e+00     0.000000e+00   
H21  0.000000e+00     4.210361e+00     0.000000e+00     8.854288e-01     0.000000e+00     0.000000e+00   
H21  0.000000e+00     3.571367e+00     0.000000e+00     9.456529e-01     0.000000e+00     0.000000e+00   
H21  0.000000e+00     3.847416e+00     0.000000e+00     9.932778e-01     0.000000e+00     0.000000e+00   
H21  0.000000e+00    -2.010156e+00     0.000000e+00     9.349528e-01     0.000000e+00     0.000000e+00   
H21  0.000000e+00    -1.466203e+00     0.000000e+00     9.237443e-01     0.000000e+00     0.000000e+00   
H21  0.000000e+00     5.190456e+00     0.000000e+00     9.759790e-01     0.000000e+00     0.000000e+00   
H21  0.000000e+00     5.260385e+00     0.000000e+00     9.526653e-01     0.000000e+00     0.000000e+00   
