128 
#   xyz format:  [atom type]  x y z (Angstrom) 
H21  0.000000e+00     2.903868e+00     0.000000e+00    -6.813912e-01     0.000000e+00     0.000000e+00   
H21  0.000000e+00     2.666398e+00     0.000000e+00    -6.997046e-01     0.000000e+00     0.000000e+00   
H21  0.000000e+00     2.776866e+00     0.000000e+00    -8.061602e-01     0.000000e+00     0.000000e+00   
H21  0.000000e+00     2.211345e+00     0.000000e+00    -8.464601e-01     0.000000e+00     0.000000e+00   
H21  0.000000e+00     2.551896e+00     0.000000e+00    -8.488850e-01     0.000000e+00     0.000000e+00   
H21  0.000000e+00    -3.968448e+00     0.000000e+00    -9.729071e-01     0.000000e+00     0.000000e+00   
H21  0.000000e+00    -3.329033e+00     0.000000e+00    -9.365042e-01     0.000000e+00     0.000000e+00   
H21  0.000000e+00    -2.523103e+00     0.000000e+00    -8.221217e-01     0.000000e+00     0.000000e+00   
H21  0.000000e+00     4.187269e+00     0.000000e+00    -9.344829e-01     0.000000e+00     0.000000e+00   
H21  0.000000e+00     2.153787e+00     0.000000e+00    -9.983286e-01     0.000000e+00     0.000000e+00   
H21  0.000000e+00     3.585943e-02     0.000000e+00    -8.565923e-01     0.000000e+00     0.000000e+00   
H21  0.000000e+00     1.449013e-01     0.000000e+00    -8.822591e-01     0.000000e+00     0.000000e+00   
H21  0.000000e+00     3.415894e-01     0.000000e+00    -8.528384e-01     0.000000e+00     0.000000e+00   
H21  0.000000e+00     9.143955e-02     0.000000e+00    -9.503130e-01     0.000000e+00     0.000000e+00   
H21  0.000000e+00     1.665849e-01     0.000000e+00    -8.179093e-01     0.000000e+00     0.000000e+00   
H21  0.000000e+00    -9.943692e-01     0.000000e+00    -9.414443e-01     0.000000e+00     0.000000e+00   
H21  0.000000e+00    -9.943622e-01     0.000000e+00    -9.459417e-01     0.000000e+00     0.000000e+00   
H21  0.000000e+00    -8.237066e-01     0.000000e+00    -8.564809e-01     0.000000e+00     0.000000e+00   
H21  0.000000e+00    -5.875341e-01     0.000000e+00    -8.129594e-01     0.000000e+00     0.000000e+00   
H21  0.000000e+00     1.047737e-01     0.000000e+00    -7.468153e-01     0.000000e+00     0.000000e+00   
H21  0.000000e+00     4.070325e-01     0.000000e+00    -6.549329e-01     0.000000e+00     0.000000e+00   
H21  0.000000e+00     5.911467e-01     0.000000e+00    -4.861020e-01     0.000000e+00     0.000000e+00   
H21  0.000000e+00     7.916500e-01     0.000000e+00    -3.823090e-01     0.000000e+00     0.000000e+00   
H21  0.000000e+00     6.682722e-01     0.000000e+00    -5.561860e-01     0.000000e+00     0.000000e+00   
H21  0.000000e+00     6.491575e-01     0.000000e+00    -7.211883e-01     0.000000e+00     0.000000e+00   
H21  0.000000e+00     5.136163e-01     0.000000e+00    -7.882080e-01     0.000000e+00     0.000000e+00   
H21  0.000000e+00     3.363627e-01     0.000000e+00    -7.290654e-01     0.000000e+00     0.000000e+00   
H21  0.000000e+00     3.234292e-01     0.000000e+00    -8.080395e-01     0.000000e+00     0.000000e+00   
H21  0.000000e+00     2.686337e-01     0.000000e+00    -7.821224e-01     0.000000e+00     0.000000e+00   
H21  0.000000e+00     3.074958e-02     0.000000e+00    -9.010189e-01     0.000000e+00     0.000000e+00   
H21  0.000000e+00     5.389969e-01     0.000000e+00    -7.264793e-01     0.000000e+00     0.000000e+00   
H21  0.000000e+00     5.010146e-01     0.000000e+00    -5.782604e-01     0.000000e+00     0.000000e+00   
H21  0.000000e+00     3.574127e-01     0.000000e+00    -7.598960e-01     0.000000e+00     0.000000e+00   
H21  0.000000e+00     4.204426e-01     0.000000e+00    -6.539571e-01     0.000000e+00     0.000000e+00   
H21  0.000000e+00     4.674465e-01     0.000000e+00    -5.996969e-01     0.000000e+00     0.000000e+00   
H21  0.000000e+00     5.413217e-01     0.000000e+00    -6.233632e-01     0.000000e+00     0.000000e+00   
H21  0.000000e+00     5.785173e-01     0.000000e+00    -4.800447e-01     0.000000e+00     0.000000e+00   
H21  0.000000e+00     7.684923e-01     0.000000e+00    -7.552324e-01     0.000000e+00     0.000000e+00   
H21  0.000000e+00     1.306589e+00     0.000000e+00    -7.212954e-01     0.000000e+00     0.000000e+00   
H21  0.000000e+00    -4.901596e+00     0.000000e+00    -7.045557e-01     0.000000e+00     0.000000e+00   
H21  0.000000e+00     1.494188e+00     0.000000e+00    -8.113036e-01     0.000000e+00     0.000000e+00   
H21  0.000000e+00     1.758426e+00     0.000000e+00    -9.158054e-01     0.000000e+00     0.000000e+00   
H21  0.000000e+00     1.391354e+00     0.000000e+00    -8.136602e-01     0.000000e+00     0.000000e+00   
H21  0.000000e+00     9.493846e-01     0.000000e+00    -5.669840e-01     0.000000e+00     0.000000e+00   
H21  0.000000e+00     9.186986e-01     0.000000e+00    -7.227216e-01     0.000000e+00     0.000000e+00   
H21  0.000000e+00     5.585383e-01     0.000000e+00    -8.657449e-01     0.000000e+00     0.000000e+00   
H21  0.000000e+00     2.160564e-01     0.000000e+00    -5.800903e-01     0.000000e+00     0.000000e+00   
H21  0.000000e+00     8.961134e-02     0.000000e+00    -3.045130e-01     0.000000e+00     0.000000e+00   
H21  0.000000e+00     3.624127e-02     0.000000e+00    -1.064845e-01     0.000000e+00     0.000000e+00   
H21  0.000000e+00     6.285921e-02     0.000000e+00    -1.824676e-01     0.000000e+00     0.000000e+00   
H21  0.000000e+00     6.169819e+00     0.000000e+00    -2.664756e-01     0.000000e+00     0.000000e+00   
H21  0.000000e+00    -6.998445e-01     0.000000e+00    -3.102101e-01     0.000000e+00     0.000000e+00   
H21  0.000000e+00     5.356953e+00     0.000000e+00    -1.971200e-01     0.000000e+00     0.000000e+00   
H21  0.000000e+00    -8.116014e-01     0.000000e+00    -4.618425e-01     0.000000e+00     0.000000e+00   
H21  0.000000e+00    -6.847127e-01     0.000000e+00    -3.817091e-01     0.000000e+00     0.000000e+00   
H21  0.000000e+00    -7.066666e-01     0.000000e+00    -5.253270e-01     0.000000e+00     0.000000e+00   
H21  0.000000e+00    -5.519553e-01     0.000000e+00    -6.131310e-01     0.000000e+00     0.000000e+00   
H21  0.000000e+00    -1.033205e+00     0.000000e+00    -5.681527e-01     0.000000e+00     0.000000e+00   
H21  0.000000e+00    -7.100257e+00     0.000000e+00    -3.491489e-01     0.000000e+00     0.000000e+00   
H21  0.000000e+00    -7.622661e-01     0.000000e+00    -2.543103e-01     0.000000e+00     0.000000e+00   
H21  0.000000e+00    -9.331256e-01     0.000000e+00    -5.881215e-01     0.000000e+00     0.000000e+00   
H21  0.000000e+00    -1.361775e+00     0.000000e+00    -5.434271e-01     0.000000e+00     0.000000e+00   
H21  0.000000e+00    -1.217177e+00     0.000000e+00    -6.838452e-01     0.000000e+00     0.000000e+00   
H21  0.000000e+00    -9.551175e-01     0.000000e+00    -7.328945e-01     0.000000e+00     0.000000e+00   
H21  0.000000e+00    -8.640757e-01     0.000000e+00    -5.145272e-01     0.000000e+00     0.000000e+00   
H21  0.000000e+00    -8.632826e-01     0.000000e+00    -6.331053e-01     0.000000e+00     0.000000e+00   
H21  0.000000e+00    -1.378858e+00     0.000000e+00    -6.034316e-01     0.000000e+00     0.000000e+00   
H21  0.000000e+00    -1.752081e+00     0.000000e+00    -4.075158e-01     0.000000e+00     0.000000e+00   
H21  0.000000e+00    -1.675310e+00     0.000000e+00    -2.370333e-01     0.000000e+00     0.000000e+00   
H21  0.000000e+00    -7.650446e+00     0.000000e+00    -1.835762e-01     0.000000e+00     0.000000e+00   
H21  0.000000e+00    -1.691578e+00     0.000000e+00    -1.322297e-01     0.000000e+00     0.000000e+00   
H21  0.000000e+00    -1.588199e+00     0.000000e+00     2.024212e-01     0.000000e+00     0.000000e+00   
H21  0.000000e+00    -1.636758e+00     0.000000e+00     5.568353e-01     0.000000e+00     0.000000e+00   
H21  0.000000e+00    -1.408044e+00     0.000000e+00     3.233484e-01     0.000000e+00     0.000000e+00   
H21  0.000000e+00    -1.400204e+00     0.000000e+00     1.768721e-02     0.000000e+00     0.000000e+00   
H21  0.000000e+00    -8.094622e+00     0.000000e+00     1.980812e-01     0.000000e+00     0.000000e+00   
H21  0.000000e+00    -1.907805e+00     0.000000e+00     1.525577e-01     0.000000e+00     0.000000e+00   
H21  0.000000e+00    -1.758697e+00     0.000000e+00     4.143322e-01     0.000000e+00     0.000000e+00   
H21  0.000000e+00     4.073841e+00     0.000000e+00     5.925405e-01     0.000000e+00     0.000000e+00   
H21  0.000000e+00     3.900044e+00     0.000000e+00     6.742159e-01     0.000000e+00     0.000000e+00   
H21  0.000000e+00     3.878982e+00     0.000000e+00     7.151843e-01     0.000000e+00     0.000000e+00   
H21  0.000000e+00    -2.213587e+00     0.000000e+00     6.299844e-01     0.000000e+00     0.000000e+00   
H21  0.000000e+00     4.008684e+00     0.000000e+00     5.767449e-01     0.000000e+00     0.000000e+00   
H21  0.000000e+00     4.274892e+00     0.000000e+00     7.386582e-01     0.000000e+00     0.000000e+00   
H21  0.000000e+00     4.284639e+00     0.000000e+00     6.480416e-01     0.000000e+00     0.000000e+00   
H21  0.000000e+00     4.169593e+00     0.000000e+00     5.430906e-01     0.000000e+00     0.000000e+00   
H21  0.000000e+00     3.937364e+00     0.000000e+00     6.294509e-01     0.000000e+00     0.000000e+00   
H21  0.000000e+00     3.634269e+00     0.000000e+00     7.063315e-01     0.000000e+00     0.000000e+00   
H21  0.000000e+00     3.885597e+00     0.000000e+00     7.220712e-01     0.000000e+00     0.000000e+00   
H21  0.000000e+00     3.889119e+00     0.000000e+00     3.539465e-01     0.000000e+00     0.000000e+00   
H21  0.000000e+00     3.711330e+00     0.000000e+00     2.972945e-01     0.000000e+00     0.000000e+00   
H21  0.000000e+00     3.897545e+00     0.000000e+00     1.528725e-01     0.000000e+00     0.000000e+00   
H21  0.000000e+00     3.806837e+00     0.000000e+00     1.245395e-01     0.000000e+00     0.000000e+00   
H21  0.000000e+00     3.794099e+00     0.000000e+00     1.374334e-02     0.000000e+00     0.000000e+00   
H21  0.000000e+00     3.798712e+00     0.000000e+00     1.814660e-01     0.000000e+00     0.000000e+00   
H21  0.000000e+00     4.047642e+00     0.000000e+00     2.452613e-02     0.000000e+00     0.000000e+00   
H21  0.000000e+00     3.561680e+00     0.000000e+00     3.234960e-01     0.000000e+00     0.000000e+00   
H21  0.000000e+00     3.339816e+00     0.000000e+00     2.747623e-01     0.000000e+00     0.000000e+00   
H21  0.000000e+00     3.261901e+00     0.000000e+00    -1.239103e-01     0.000000e+00     0.000000e+00   
H21  0.000000e+00     3.359192e+00     0.000000e+00     1.779456e-01     0.000000e+00     0.000000e+00   
H21  0.000000e+00     3.010872e+00     0.000000e+00     2.197146e-01     0.000000e+00     0.000000e+00   
H21  0.000000e+00     2.791716e+00     0.000000e+00    -7.018339e-02     0.000000e+00     0.000000e+00   
H21  0.000000e+00     3.128953e+00     0.000000e+00    -3.274758e-01     0.000000e+00     0.000000e+00   
H21  0.000000e+00     2.974576e+00     0.000000e+00    -3.451392e-01     0.000000e+00     0.000000e+00   
H21  0.000000e+00     3.082499e+00     0.000000e+00    -3.997395e-01     0.000000e+00     0.000000e+00   
H21  0.000000e+00     3.351131e+00     0.000000e+00    -5.301927e-02     0.000000e+00     0.000000e+00   
H21  0.000000e+00     3.405356e+00     0.000000e+00    -3.528650e-01     0.000000e+00     0.000000e+00   
H21  0.000000e+00     3.656767e+00     0.000000e+00    -5.815306e-01     0.000000e+00     0.000000e+00   
H21  0.000000e+00     3.943698e+00     0.000000e+00    -2.052535e-01     0.000000e+00     0.000000e+00   
H21  0.000000e+00     3.787790e+00     0.000000e+00    -9.739890e-02     0.000000e+00     0.000000e+00   
H21  0.000000e+00     3.511117e+00     0.000000e+00    -1.574257e-01     0.000000e+00     0.000000e+00   
H21  0.000000e+00     4.077564e+00     0.000000e+00    -1.077063e-01     0.000000e+00     0.000000e+00   
H21  0.000000e+00     4.578416e+00     0.000000e+00    -1.151467e-01     0.000000e+00     0.000000e+00   
H21  0.000000e+00     4.312140e+00     0.000000e+00    -5.181473e-02     0.000000e+00     0.000000e+00   
H21  0.000000e+00     4.310330e+00     0.000000e+00    -1.141265e-01     0.000000e+00     0.000000e+00   
H21  0.000000e+00     4.376732e+00     0.000000e+00    -1.766797e-01     0.000000e+00     0.000000e+00   
H21  0.000000e+00     4.442299e+00     0.000000e+00    -3.451400e-01     0.000000e+00     0.000000e+00   
H21  0.000000e+00     4.355745e+00     0.000000e+00    -3.297849e-01     0.000000e+00     0.000000e+00   
H21  0.000000e+00     4.254276e+00     0.000000e+00    -6.406976e-01     0.000000e+00     0.000000e+00   
H21  0.000000e+00     4.313394e+00     0.000000e+00    -4.309971e-01     0.000000e+00     0.000000e+00   
H21  0.000000e+00     3.873235e+00     0.000000e+00    -4.001131e-01     0.000000e+00     0.000000e+00   
H21  0.000000e+00     3.754819e+00     0.000000e+00    -2.720039e-01     0.000000e+00     0.000000e+00   
H21  0.000000e+00     3.783067e+00     0.000000e+00     8.698701e-02     0.000000e+00     0.000000e+00   
H21  0.000000e+00     3.474845e+00     0.000000e+00     2.112104e-01     0.000000e+00     0.000000e+00   
H21  0.000000e+00    -3.042282e+00     0.000000e+00     1.925618e-01     0.000000e+00     0.000000e+00   
H21  0.000000e+00    -3.050965e+00     0.000000e+00     5.232694e-02     0.000000e+00     0.000000e+00   
H21  0.000000e+00     3.490756e+00     0.000000e+00     5.771296e-01     0.000000e+00     0.000000e+00   
H21  0.000000e+00     3.837411e+00     0.000000e+00     7.319850e-01     0.000000e+00     0.000000e+00   
